pglib_opf_case793_goc/dapi/pglib_opf_case793_goc_5regions_dapi.m
% -------------------------------------------------------------------------
% Partitioned MATPOWER Case File
% Copyright (c) 2025 Milad Hasanzadeh
% Generated on: 2026-06-14
% This file contains partitioned data for 5 regions


% -------------------- mpc_regionR1 --------------------

mpc_regionR1.version = '2';
mpc_regionR1.baseMVA = 100.0000;
mpc_regionR1.bus = [
%	bus_i       type        Pd          Qd          Gs          Bs          area        Vm          Va          baseKV      zone        Vmax        Vmin        
	 1	 1	 23.58	 6.64	 0	 0	 1	 0.995	 0	 115	 1	 1.06	 0.93;
	 2	 1	 38.48	 17.95	 0	 15.498	 1	 0.995	 0	 115	 1	 1.06	 0.93;
	 3	 1	 13.53	 2.57	 0	 0	 1	 0.995	 0	 35	 1	 1.06	 0.93;
	 4	 1	 0	 0	 0	 0	 1	 0.995	 0	 115	 1	 1.06	 0.93;
	 5	 1	 0.5	-1.3	 0	 0	 1	 0.995	 0	 13	 1	 1.06	 0.93;
	 6	 1	 0	 0	 0	 0	 1	 0.995	 0	 14	 1	 1.06	 0.93;
	 7	 1	 10.43	 4	 0	 0	 1	 0.995	 0	 115	 1	 1.06	 0.93;
	 8	 1	 3.25	 0.37	 0	 0	 1	 0.995	 0	 13	 1	 1.06	 0.93;
	 9	 1	 20.1	 2.64	 0	 0	 1	 0.995	 0	 35	 1	 1.06	 0.93;
	 10	 1	 0	 0	 0	 0	 1	 0.995	 0	 115	 1	 1.06	 0.93;
	 11	 1	 0	 0	 0	 0	 1	 0.995	 0	 115	 1	 1.06	 0.93;
	 12	 1	 14.94	 6.57	 0	 0	 1	 0.995	 0	 35	 1	 1.06	 0.93;
	 13	 1	 12.4	 2.28	 0	 0	 1	 0.995	 0	 13	 1	 1.06	 0.93;
	 14	 1	 19.93	 3.44	 0	 0	 1	 0.995	 0	 35	 1	 1.06	 0.93;
	 15	 1	 0	 0	 0	 0	 1	 0.995	 0	 115	 1	 1.06	 0.93;
	 16	 1	 0	 0	 0	 0.0160397150585	 1	 0.995	 0	 115	 1	 1.06	 0.93;
	 17	 1	 0	 0	 0	 0	 1	 0.995	 0	 230	 1	 1.06	 0.93;
	 18	 1	 0	 0	 0	 0	 1	 0.995	 0	 230	 1	 1.06	 0.93;
	 19	 1	 13.05	-4.15	 0	 0	 1	 0.995	 0	 13	 1	 1.06	 0.93;
	 20	 1	 8.1	-1.09	 0	 0	 1	 0.995	 0	 115	 1	 1.06	 0.93;
	 21	 1	 0	 0	 0	 0	 1	 0.995	 0	 115	 1	 1.06	 0.93;
	 22	 1	 0	 0	 0	 0.00111992645637	 1	 0.995	 0	 115	 1	 1.06	 0.93;
	 23	 1	 0	 0	 0	 0	 1	 0.995	 0	 14	 1	 1.06	 0.93;
	 24	 1	 0	 0	 0	 0	 1	 0.995	 0	 115	 1	 1.06	 0.93;
	 25	 1	 37.15	 2.96	 0	-4.2418108228	 1	 0.995	 0	 35	 1	 1.06	 0.93;
	 26	 1	 0	 0	 0	 0	 1	 0.995	 0	 115	 1	 1.06	 0.93;
	 27	 2	 0	 0	 0	 0	 1	 0.995	 0	 230	 1	 1.06	 0.93;
	 28	 1	 10.7	 1.2	 0	 0	 1	 0.995	 0	 115	 1	 1.06	 0.93;
	 29	 1	 0	 0	 0	 0	 1	 0.995	 0	 230	 1	 1.06	 0.93;
	 30	 1	 14.98	 8.24	 0	 0	 1	 0.995	 0	 35	 1	 1.06	 0.93;
	 31	 1	 0	 0	 0	 0	 1	 0.995	 0	 230	 1	 1.06	 0.93;
	 32	 1	 108.41	-4.52	 0	-4.438	 1	 0.995	 0	 230	 1	 1.06	 0.93;
	 33	 1	-8.37	-3.33	 0	 0	 1	 0.995	 0	 230	 1	 1.06	 0.93;
	 34	 1	 0	 0	 0	 0	 1	 0.995	 0	 230	 1	 1.06	 0.93;
	 35	 1	 26.61	 7.17	 0	 0	 1	 0.995	 0	 35	 1	 1.06	 0.93;
	 36	 1	 0	 0	 0	 0	 1	 0.995	 0	 115	 1	 1.06	 0.93;
	 37	 1	 0	 0	 0	 0	 1	 0.995	 0	 230	 1	 1.06	 0.93;
	 38	 2	 3.07	 0.46	 0	 0	 1	 0.995	 0	 115	 1	 1.06	 0.93;
	 39	 1	 13.53	 2.3	 0	 0	 1	 0.995	 0	 115	 1	 1.06	 0.93;
	 40	 1	 0	 0	 0	 0	 1	 0.995	 0	 230	 1	 1.06	 0.93;
	 41	 2	 0	 0	 0	 0	 1	 0.995	 0	 230	 1	 1.06	 0.93;
	 42	 2	 10.79	-1.53	 0	 0	 1	 0.995	 0	 115	 1	 1.06	 0.93;
	 43	 1	 14.98	 8.24	 0	 0	 1	 0.995	 0	 35	 1	 1.06	 0.93;
	 44	 1	 0	 0	 0	 0	 1	 0.995	 0	 115	 1	 1.06	 0.93;
	 45	 1	 7.67	 3.08	 0	 0	 1	 0.995	 0	 13	 1	 1.06	 0.93;
	 46	 2	 0	 0	 0	 0	 1	 0.995	 0	 230	 1	 1.06	 0.93;
	 47	 1	 10.71	 0.56	 0	 0	 1	 0.995	 0	 115	 1	 1.06	 0.93;
	 48	 1	 14.66	-1.11	 0	-5.72431630412	 1	 0.995	 0	 35	 1	 1.06	 0.93;
	 49	 2	 0	 0	 0	 0	 1	 0.995	 0	 230	 1	 1.06	 0.93;
	 50	 1	 9.6	 5.95	 0	 0	 1	 0.995	 0	 35	 1	 1.06	 0.93;
	 51	 1	 7.36	-0.28	 0	 0	 1	 0.995	 0	 115	 1	 1.06	 0.93;
	 52	 1	 15.1	 10.95	 0	 34.5917650937	 1	 0.995	 0	 115	 1	 1.06	 0.93;
	 53	 1	 0	 0	 0	 0	 1	 0.995	 0	 115	 1	 1.06	 0.93;
	 54	 1	 3.85	-0.47	 0	 0	 1	 0.995	 0	 13	 1	 1.06	 0.93;
	 55	 1	 8	-0.28	 0	 0	 1	 0.995	 0	 115	 1	 1.06	 0.93;
	 56	 1	 45.29	 0.09	 0	 0	 1	 0.995	 0	 230	 1	 1.06	 0.93;
	 57	 2	 1.4	 0.61	 0	 0	 1	 0.995	 0	 14	 1	 1.06	 0.93;
	 58	 1	 0	 0	 0	 0	 1	 0.995	 0	 230	 1	 1.06	 0.93;
	 59	 1	 0	 0	 0	 24.9999281688	 1	 0.995	 0	 115	 1	 1.06	 0.93;
	 60	 1	 7.22	-0.27	 0	 0	 1	 0.995	 0	 115	 1	 1.06	 0.93;
	 61	 1	 0	 0	 0	 0	 1	 0.995	 0	 230	 1	 1.06	 0.93;
	 62	 1	 5.69	-3.56	 0	 0	 1	 0.995	 0	 35	 1	 1.06	 0.93;
	 63	 2	 11.54	-3.59	 0	 0	 1	 0.995	 0	 115	 1	 1.06	 0.93;
	 64	 1	 8.21	 0.36	 0	 0	 1	 0.995	 0	 115	 1	 1.06	 0.93;
	 65	 1	 0	 0	 0	 0	 1	 0.995	 0	 115	 1	 1.06	 0.93;
	 66	 1	 10.19	 4.89	 0	 0.00179881396866	 1	 0.995	 0	 115	 1	 1.06	 0.93;
	 67	 1	 3.06	-2.48	 0	 0	 1	 0.995	 0	 13	 1	 1.06	 0.93;
	 68	 1	 5.48	-0.28	 0	 0	 1	 0.995	 0	 115	 1	 1.06	 0.93;
	 69	 1	 35.95	 0.43	 0	 0	 1	 0.995	 0	 35	 1	 1.06	 0.93;
	 70	 1	 21.4	 3.53	 0	 0	 1	 0.995	 0	 35	 1	 1.06	 0.93;
	 71	 1	 0	 0	 0	 0	 1	 0.995	 0	 230	 1	 1.06	 0.93;
	 72	 1	 1.38	 0.56	 0	 0	 1	 0.995	 0	 14	 1	 1.06	 0.93;
	 73	 1	 46.08	 22.08	 0	 21.502	 1	 0.995	 0	 115	 1	 1.06	 0.93;
	 74	 1	 10.71	 0.56	 0	 0	 1	 0.995	 0	 115	 1	 1.06	 0.93;
	 75	 1	 0	 0	 0	 0	 1	 0.995	 0	 115	 1	 1.06	 0.93;
	 76	 1	 13.29	 0.56	 0	 0	 1	 0.995	 0	 115	 1	 1.06	 0.93;
	 77	 1	 20.98	 3.93	 0	 0	 1	 0.995	 0	 115	 1	 1.06	 0.93;
	 78	 2	 0	 0	 0	 0	 1	 0.995	 0	 230	 1	 1.06	 0.93;
	 79	 1	 0	 0	 0	 0	 1	 0.995	 0	 230	 1	 1.06	 0.93;
	 80	 1	-0.27	 0.01	 0	-1.541560956	 1	 0.995	 0	 35	 1	 1.06	 0.93;
	 81	 1	 30	 0.02	 0	 0	 1	 0.995	 0	 35	 1	 1.06	 0.93;
	 82	 2	 0	 0	 0	 0	 1	 0.995	 0	 230	 1	 1.06	 0.93;
	 83	 1	 0	 0	 0	 0	 1	 0.995	 0	 115	 1	 1.06	 0.93;
	 84	 1	 4.65	-0.28	 0	 0	 1	 0.995	 0	 115	 1	 1.06	 0.93;
	 85	 2	 0	 0	 0	 0	 1	 0.995	 0	 115	 1	 1.06	 0.93;
	 86	 1	 3.33	 2.58	 0	 11.8045729003	 1	 0.995	 0	 115	 1	 1.06	 0.93;
	 87	 2	 25.21	 2.69	 0	 0	 1	 0.995	 0	 115	 7	 1.06	 0.93;
	 88	 2	 50.31	 6.98	 0	 0	 1	 0.995	 0	 115	 7	 1.06	 0.93;
	 89	 2	 31.53	 7.27	 0	 0	 1	 0.995	 0	 115	 7	 1.06	 0.93;
	 90	 2	 0	 0	 0	 0	 1	 0.995	 0	 230	 7	 1.06	 0.93;
	 91	 1	 90.77	 17.28	 0	 0	 1	 0.995	 0	 115	 7	 1.06	 0.93;
	 92	 1	 0	 0	 0	 0	 1	 0.995	 0	 115	 7	 1.06	 0.93;
	 93	 1	 90.77	 10.21	 0	 0	 1	 0.995	 0	 115	 7	 1.06	 0.93;
	 94	 2	 90.77	 17.29	 0	 0	 1	 0.995	 0	 115	 7	 1.06	 0.93;
	 95	 1	 74.94	 12.76	 0	 0	 1	 0.995	 0	 115	 7	 1.06	 0.93;
	 96	 1	 50.13	 1.83	 0	 0	 1	 0.995	 0	 115	 7	 1.06	 0.93;
	 97	 2	 50.13	 16.09	 0	 0	 1	 0.995	 0	 115	 7	 1.06	 0.93;
	 98	 1	 0	 0	 0	 0	 1	 0.995	 0	 115	 7	 1.06	 0.93;
	 99	 1	 39.98	 4.7	 0	 0	 1	 0.995	 0	 115	 7	 1.06	 0.93;
	 100	 1	 0	 0	 0	 0	 1	 0.995	 0	 115	 7	 1.06	 0.93;
	 101	 2	 61.87	 3.88	 0	 0	 1	 0.995	 0	 115	 7	 1.06	 0.93;
	 102	 1	 0	 0	 0	 0	 1	 0.995	 0	 115	 7	 1.06	 0.93;
	 103	 1	 61.87	 8.16	 0	 0	 1	 0.995	 0	 115	 7	 1.06	 0.93;
	 104	 1	 65.12	 19.93	 0	 0	 1	 0.995	 0	 115	 7	 1.06	 0.93;
	 105	 1	 67.67	 17.55	 0	 0	 1	 0.995	 0	 115	 7	 1.06	 0.93;
	 106	 2	 0	 0	 0	 0	 1	 0.995	 0	 115	 7	 1.06	 0.93;
	 107	 1	 45.94	 3.71	 0	 0	 1	 0.995	 0	 115	 7	 1.06	 0.93;
	 108	 1	 45.94	 5.11	 0	 0	 1	 0.995	 0	 115	 7	 1.06	 0.93;
	 109	 1	 10.57	 1.39	 0	 0	 1	 0.995	 0	 115	 7	 1.06	 0.93;
	 110	 1	 52.1	 6.69	 0	 0	 1	 0.995	 0	 115	 7	 1.06	 0.93;
	 111	 1	 52.65	 15.65	 0	 0	 1	 0.995	 0	 115	 7	 1.06	 0.93;
	 112	 1	 0	 0	 0	 0	 1	 0.995	 0	 115	 7	 1.06	 0.93;
	 113	 1	 104.21	 9.1	 0	 0	 1	 0.995	 0	 115	 7	 1.06	 0.93;
	 114	 1	 0	 0	 0	 0	 1	 0.995	 0	 115	 7	 1.06	 0.93;
	 115	 1	 15.44	 1.64	 0	 0	 1	 0.995	 0	 115	 7	 1.06	 0.93;
	 116	 1	 12.96	 1.43	 0	 0	 1	 0.995	 0	 115	 7	 1.06	 0.93;
	 117	 1	 0	 0	 0	 0	 1	 0.995	 0	 115	 7	 1.06	 0.93;
	 118	 1	 70.68	 24.47	 0	 0	 1	 0.995	 0	 115	 7	 1.06	 0.93;
	 119	 1	 70.68	 13.94	 0	 0	 1	 0.995	 0	 115	 7	 1.06	 0.93;
	 120	 1	 71.71	 15.09	 0	 0	 1	 0.995	 0	 115	 7	 1.06	 0.93;
	 121	 1	 71.71	 14.68	 0	 0	 1	 0.995	 0	 115	 7	 1.06	 0.93;
	 122	 1	 0	 0	 0	 0	 1	 0.995	 0	 115	 7	 1.06	 0.93;
	 123	 1	 63.67	 4.1	 0	 0	 1	 0.995	 0	 115	 7	 1.06	 0.93;
	 124	 1	 0	 0	 0	 0	 1	 0.995	 0	 115	 7	 1.06	 0.93;
	 125	 1	 0	 0	 0	 0	 1	 0.995	 0	 115	 7	 1.06	 0.93;
	 126	 1	 0	 0	 0	 0	 1	 0.995	 0	 115	 7	 1.06	 0.93;
	 127	 1	 97.28	 23.97	 0	 0	 1	 0.995	 0	 115	 7	 1.06	 0.93;
	 128	 1	 97.28	 24.31	 0	 173.999974646	 1	 0.995	 0	 115	 7	 1.06	 0.93;
	 129	 1	 0	 0	 0	 0	 1	 0.995	 0	 230	 7	 1.06	 0.93;
	 130	 1	 130.68	 22.58	 0	 0	 1	 0.995	 0	 115	 7	 1.06	 0.93;
	 131	 1	 130.68	 27.73	 0	 0	 1	 0.995	 0	 115	 7	 1.06	 0.93;
	 132	 1	 0	 0	 0	 100.748	 1	 0.995	 0	 500	 7	 1.06	 0.93;
	 133	 1	 0	 0	 0	 0	 1	 0.995	 0	 230	 7	 1.06	 0.93;
	 134	 1	 130.68	 12.62	 0	 0	 1	 0.995	 0	 115	 7	 1.06	 0.93;
	 135	 1	 0	 0	 0	 0	 1	 0.995	 0	 13.8	 7	 1.06	 0.93;
	 136	 1	 0	 0	 0	 0	 1	 0.995	 0	 230	 7	 1.06	 0.93;
	 137	 1	 0	 0	 0	 0	 1	 0.995	 0	 115	 7	 1.06	 0.93;
	 138	 1	 68.85	 5.03	 0	 0	 1	 0.995	 0	 13.8	 7	 1.06	 0.93;
	 139	 1	 0	 0	 0	 0	 1	 0.995	 0	 230	 7	 1.06	 0.93;
	 140	 1	 0	 0	 0	 0	 1	 0.995	 0	 115	 7	 1.06	 0.93;
	 141	 1	 68.85	 15.8	 0	 0	 1	 0.995	 0	 115	 7	 1.06	 0.93;
	 142	 1	 0	 0	 0	 0	 1	 0.995	 0	 115	 7	 1.06	 0.93;
	 143	 1	 46.61	 8.53	 0	 0	 1	 0.995	 0	 115	 7	 1.06	 0.93;
	 144	 1	 0	 0	 0	 0	 1	 0.995	 0	 115	 7	 1.06	 0.93;
	 145	 1	 0	 0	 0	 0	 1	 0.995	 0	 115	 7	 1.06	 0.93;
	 146	 1	 0	 0	 0	 0	 1	 0.995	 0	 115	 7	 1.06	 0.93;
	 147	 1	 0	 0	 0	 0	 1	 0.995	 0	 115	 7	 1.06	 0.93;
	 148	 1	 20.37	 13.88	 0	 0	 1	 0.995	 0	 115	 7	 1.06	 0.93;
	 149	 1	 30.7	 4.22	 0	 0	 1	 0.995	 0	 115	 7	 1.06	 0.93;
	 150	 1	 0	 0	 0	 0	 1	 0.995	 0	 230	 7	 1.06	 0.93;
	 151	 1	 0	 0	 0	 0	 1	 0.995	 0	 115	 7	 1.06	 0.93;
	 152	 1	 87.42	 13.88	 0	 0	 1	 0.995	 0	 230	 7	 1.06	 0.93;
	 153	 1	 0	 0	 0	 0	 1	 0.995	 0	 230	 7	 1.06	 0.93;
	 154	 1	 87.42	 35.24	 0	 0	 1	 0.995	 0	 115	 7	 1.06	 0.93;
	 155	 1	 13.16	 5.5	 0	 0	 1	 0.995	 0	 115	 7	 1.06	 0.93;
	 156	 2	 0	 0	 0	 0	 1	 0.995	 0	 115	 7	 1.06	 0.93;
	 157	 1	 94.44	 11.13	 0	 0	 1	 0.995	 0	 115	 7	 1.06	 0.93;
	 158	 1	 0	 0	 0	 0.00196084330526	 1	 0.995	 0	 230	 7	 1.06	 0.93;
	 159	 1	 0	 0	 0	 0	 1	 0.995	 0	 115	 7	 1.06	 0.93;
	 160	 1	 94.44	 3.24	 0	 0	 1	 0.995	 0	 13.8	 7	 1.06	 0.93;
	 161	 1	 0	 0	 0	 0	 1	 0.995	 0	 230	 7	 1.06	 0.93;
	 162	 1	 6.84	 2.91	 0	 0	 1	 0.995	 0	 115	 7	 1.06	 0.93;
	 163	 1	 0	 0	 0	 0	 1	 0.995	 0	 115	 7	 1.06	 0.93;
	 164	 1	 0	 0	 0	 0	 1	 0.995	 0	 115	 7	 1.06	 0.93;
	 165	 1	 2.26	 0.65	 0	 0	 1	 0.995	 0	 115	 7	 1.06	 0.93;
	 166	 1	 0	 0	 0	 0	 1	 0.995	 0	 115	 7	 1.06	 0.93;
	 167	 1	 0	 0	 0	 0	 1	 0.995	 0	 500	 7	 1.06	 0.93;
	 168	 1	 0	 0	 0	 0	 1	 0.995	 0	 230	 7	 1.06	 0.93;
	 169	 1	 0	 0	 0	 0	 1	 0.995	 0	 115	 7	 1.06	 0.93;
	 170	 1	 0	 0	 0	 0	 1	 0.995	 0	 13.8	 7	 1.06	 0.93;
	 171	 1	 0	 0	 0	 0	 1	 0.995	 0	 22	 7	 1.06	 0.93;
	 172	 1	 0	 0	 0	 0	 1	 0.995	 0	 13.8	 7	 1.06	 0.93;
	 173	 1	 0	 0	 0	 0	 1	 0.995	 0	 13.8	 7	 1.06	 0.93;
	 174	 1	 0	 0	 0	 0	 1	 0.995	 0	 13.8	 7	 1.06	 0.93;
	 175	 1	 0	 0	 0	 0	 1	 0.995	 0	 13.8	 7	 1.06	 0.93;
	 176	 2	 0	 0	 0	 0	 1	 0.995	 0	 24	 7	 1.06	 0.93;
	 177	 1	 0	 0	 0	 0	 1	 0.995	 0	 13.8	 7	 1.06	 0.93;
	 178	 2	 0	 0	 0	 0	 1	 0.995	 0	 13.8	 7	 1.06	 0.93;
	 179	 1	 0	 0	 0	 0	 1	 0.995	 0	 13.8	 7	 1.06	 0.93;
	 180	 1	 0	 0	 0	 0	 1	 0.995	 0	 115	 7	 1.06	 0.93;
	 181	 1	 0	 0	 0	 0	 1	 0.995	 0	 1	 7	 1.06	 0.93;
	 182	 1	 0	 0	 0	 0	 1	 0.995	 0	 1	 7	 1.06	 0.93;
	 183	 1	 0	 0	 0	 0	 1	 0.995	 0	 1	 7	 1.06	 0.93;
	 184	 1	 0	 0	 0	 0	 1	 0.995	 0	 1	 7	 1.06	 0.93;
];

mpc_regionR1.gen = [
%	bus         Pg          Qg          Qmax        Qmin        Vg          mBase       status      Pmax        Pmin        Pc1         Pc2         Qc1min      Qc1max      Qc2min      Qc2max      ramp_agc    ramp_10     ramp_30     ramp_q      apf         
	 6	 0	 0	 45	-45	 0.995	 100	 0	 90	 14.25;
	 23	 0	 0	 119	-119	 0.995	 67.5	 0	 238	 1;
	 23	 0	 0	 41	-41	 0.995	 67.5	 0	 81	 7.125;
	 27	 35.67125	 0	 160	-160	 0.995	 100	 1	 54	 17.3425;
	 29	 0	 0	 19.29	-19.29	 0.995	 57.87	 0	 14	 5.7;
	 31	 0	 0	 33.127	-33.127	 0.995	 99.38	 0	 36	 1;
	 31	 0	 0	 85	-85	 0.995	 69.15	 0	 169	 1;
	 31	 0	 0	 16.237	-16.237	 0.995	 48.71	 0	 22	 12.57;
	 38	 2.28225	 0	 160	-160	 0.995	 100	 1	 4	 0.5645;
	 40	 0	 0	 197	-197	 0.995	 203.25	 0	 394	 25.27;
	 41	 72.379	 0	 160	-160	 0.995	 100	 1	 139	 5.758;
	 42	 42.31775	 0	 160	-160	 0.995	 100	 1	 77	 7.6355;
	 46	 114.4175	 0	 160	-160	 0.995	 100	 1	 215	 13.835;
	 49	 56.1685	 0	 160	-160	 0.995	 100	 1	 95	 17.337;
	 57	 21.34825	 36.116	 92.232	-20	 0.995	 27.8	 1	 39	 3.6965;
	 57	 0	 0	 55	-55	 0.995	 27.8	 0	 109	 2.375;
	 63	 35.758	 0	 160	-160	 0.995	 100	 1	 64	 7.516;
	 72	 0	 0	 57	-57	 0.995	 27.8	 0	 114	 2.375;
	 72	 0	 0	 9.267	-9.267	 0.995	 27.8	 0	 2	 1;
	 78	 29.3745	 0	 160	-160	 0.995	 100	 1	 49	 9.749;
	 79	 0	 0	 158	-158	 0.995	 100	 0	 316	 1;
	 82	 55.15925	 0	 160	-160	 0.995	 100	 1	 104	 6.3185;
	 85	 2.74125	 0	 160	-160	 0.995	 100	 1	 4	 1.4825;
	 87	 97.61825	 0	 160	-160	 0.995	 100	 1	 188	 7.2365;
	 88	 105.205	 0	 160	-160	 0.995	 100	 1	 205	 5.41;
	 89	 154.64025	 0	 160	-160	 0.995	 100	 1	 297	 12.2805;
	 90	 495.222	 0	 483	-483	 0.995	 100	 1	 965	 25.444;
	 94	 214.6065	 0	 206	-206	 0.995	 100	 1	 412	 17.213;
	 97	 89.38725	 0	 160	-160	 0.995	 100	 1	 169	 9.7745;
	 101	 282.5485	 0	 280	-280	 0.995	 100	 1	 560	 5.097;
	 106	 87.57575	 0	 160	-160	 0.995	 100	 1	 166	 9.1515;
	 132	 0	 0	 117	-117	 0.995	 100	 0	 233	 94.4585;
	 156	 170.8295	 0	 169	-169	 0.995	 100	 1	 338	 3.659;
	 166	 0	 0	 64	-64	 0.995	 93.044	 0	 127	 15.5;
	 171	 0	 0	 97	-97	 0.995	 141.505	 0	 194	 18.089;
	 172	 0	 0	 360	-360	 0.995	 135.577	 0	 720	 19.2;
	 173	 0	 0	 283	-283	 0.995	 120.747	 0	 566	 13.21;
	 174	 0	 0	 61	-61	 0.995	 153.119	 0	 121	 6.56;
	 175	 0	 0	 47.69	-11.618	 0.995	 120.216	 0	 21	 52.077;
	 176	 130.44	 0	 125	-125	 0.995	 110.999	 1	 249	 11.88;
	 177	 0	 0	 44.179	-44.179	 0.995	 132.538	 0	 5	 40.98;
	 178	 162.33925	 0	 152	-152	 0.995	 125.632	 1	 304	 20.6785;
	 179	 0	 0	 51	-51	 0.995	 97.012	 0	 101	 19.91;
	 180	 0	 0	 7	-7	 0.995	 12.76	 0	 13	 1;
];

mpc_regionR1.branch = [
%	fbus        tbus        r           x           b           rateA       rateB       rateC       ratio       angle       status      angmin      angmax      
	 1	 53	 0.02461	 0.07336	 0.00802	 128	 128	 128	 0	 0	 1	-30	 30;
	 1	 85	 0.03244	 0.09513	 0.01073	 128	 128	 128	 0	 0	 1	-30	 30;
	 2	 66	 0.00068	 0.00368	 0.00043	 125	 125	 125	 0	 0	 1	-30	 30;
	 2	 156	 0.0001	 0.01	 0	 119.81	 143.78	 143.8	 0	 0	 1	-30	 30;
	 4	 38	 0.0037	 0.01909	 0.00247	 190	 190	 190	 0	 0	 1	-30	 30;
	 4	 85	 0.00349	 0.01802	 0.00231	 190	 190	 190	 0	 0	 1	-30	 30;
	 7	 53	 0.01649	 0.04916	 0.00537	 128	 128	 128	 0	 0	 1	-30	 30;
	 7	 65	 0.00374	 0.01116	 0.00122	 128	 128	 128	 0	 0	 1	-30	 30;
	 10	 24	 0.0125	 0.02353	 0.00262	 74	 74	 74	 0	 0	 1	-30	 30;
	 11	 84	 0.00236	 0.00669	 0.00079	 62	 62	 62	 0	 0	 1	-30	 30;
	 15	 85	 0.00506	 0.01482	 0.00168	 333.45	 384.75	 384.8	 0	 0	 1	-30	 30;
	 16	 73	 0.00892	 0.05374	 0.01281	 249	 249	 249	 0	 0	 1	-30	 30;
	 16	 85	 0.0001	 0.001	 0	 260	 312	 312	 0	 0	 1	-30	 30;
	 17	 58	 2e-05	 0.001	 0	 333	 350	 350	 0	 0	 1	-30	 30;
	 18	 27	 0.00071	 0.00582	 0.01221	 510	 510	 510	 0	 0	 1	-30	 30;
	 18	 31	 7e-05	 0.001	 0.00171	 564	 612	 612	 0	 0	 1	-30	 30;
	 18	 61	 0.0001	 0.001	 0	 260	 312	 312	 0	 0	 1	-30	 30;
	 20	 51	 0.04598	 0.09139	 0.00983	 86	 86	 86	 0	 0	 1	-30	 30;
	 20	 83	 0.02947	 0.10073	 0.01266	 86	 86	 86	 0	 0	 1	-30	 30;
	 21	 59	 0.01108	 0.04402	 0.00618	 236.27	 283.52	 283.52	 0	 0	 1	-30	 30;
	 21	 65	 0.00993	 0.03804	 0.00535	 225.46	 270.55	 270.6	 0	 0	 1	-30	 30;
	 22	 86	 0.00489	 0.02021	 0.00261	 141	 153	 153	 0	 0	 1	-30	 30;
	 24	 64	 0.01151	 0.02166	 0.00241	 74	 74	 74	 0	 0	 1	-30	 30;
	 26	 65	 0.01736	 0.07168	 0.00928	 165	 165	 165	 0	 0	 1	-30	 30;
	 26	 86	 0.01303	 0.05385	 0.00695	 141	 153	 153	 0	 0	 1	-30	 30;
	 27	 34	 0.00032	 0.00211	 0.00427	 406	 432	 432	 0	 0	 1	-30	 30;
	 27	 58	 0.00151	 0.01243	 0.02626	 497	 497	 497	 0	 0	 1	-30	 30;
	 27	 58	 0.00151	 0.01236	 0.02612	 510	 510	 510	 0	 0	 1	-30	 30;
	 28	 44	 0.0092	 0.02296	 0.00287	 260	 312	 312	 0	 0	 1	-30	 30;
	 28	 64	 0.02022	 0.04363	 0.00517	 74	 74	 74	 0	 0	 1	-30	 30;
	 29	 32	 0.0001	 0.001	 0	 260	 312	 312	 0	 0	 1	-30	 30;
	 32	 34	 0.00062	 0.00521	 0.01419	 633	 633	 633	 0	 0	 1	-30	 30;
	 32	 40	 0.0001	 0.001	 0	 260	 312	 312	 0	 0	 1	-30	 30;
	 32	 90	 0.0001	 0.01	 0	 257.59	 297.22	 297.22	 0	 0	 1	-30	 30;
	 33	 49	 0.00249	 0.02091	 0.043	 510	 510	 510	 0	 0	 1	-30	 30;
	 33	 71	 0.00037	 0.00306	 0.00647	 510	 510	 510	 0	 0	 1	-30	 30;
	 36	 42	 0.00855	 0.03356	 0.00426	 160	 160	 160	 0	 0	 1	-30	 30;
	 36	 85	 0.01448	 0.0565	 0.00724	 160	 160	 160	 0	 0	 1	-30	 30;
	 37	 41	 0.00572	 0.03592	 0.12701	 617	 617	 617	 0	 0	 1	-30	 30;
	 37	 79	 0.0001	 0.001	 0	 260	 312	 312	 0	 0	 1	-30	 30;
	 39	 59	 0.01683	 0.06688	 0.0094	 264.9	 317.88	 317.9	 0	 0	 1	-30	 30;
	 41	 82	 0.00242	 0.01482	 0.05476	 658	 658	 658	 0	 0	 1	-30	 30;
	 44	 66	 0.00113	 0.00465	 0.00061	 74	 74	 74	 0	 0	 1	-30	 30;
	 46	 79	 0.0001	 0.001	 0	 260	 312	 312	 0	 0	 1	-30	 30;
	 47	 55	 0.00689	 0.01291	 0.00144	 74	 74	 74	 0	 0	 1	-30	 30;
	 47	 74	 0.00037	 0.001	 0	 74	 74	 74	 0	 0	 1	-30	 30;
	 51	 77	 0.0002	 0.001	 0	 86	 86	 86	 0	 0	 1	-30	 30;
	 52	 68	 0.02397	 0.04498	 0.00499	 74	 74	 74	 0	 0	 1	-30	 30;
	 52	 83	 0.0293	 0.08307	 0.00997	 128	 128	 128	 0	 0	 1	-30	 30;
	 52	 84	 0.03256	 0.0924	 0.01108	 59	 59	 59	 0	 0	 1	-30	 30;
	 52	 106	 0.0001	 0.01	 0	 139.18	 167.01	 167.01	 0	 0	 1	-30	 30;
	 55	 68	 0.00523	 0.00981	 0.00108	 74	 74	 74	 0	 0	 1	-30	 30;
	 56	 82	 0.00075	 0.00528	 0.02325	 331	 331	 331	 0	 0	 1	-30	 30;
	 60	 75	 0.01058	 0.02193	 0.00216	 86	 86	 86	 0	 0	 1	-30	 30;
	 60	 76	 0.0059	 0.01222	 0.00121	 86	 86	 86	 0	 0	 1	-30	 30;
	 61	 78	 0.00519	 0.04108	 0.09283	 510	 510	 510	 0	 0	 1	-30	 30;
	 63	 85	 0.03778	 0.11512	 0.0141	 128	 128	 128	 0	 0	 1	-30	 30;
	 71	 79	 0.00493	 0.0412	 0.0844	 510	 510	 510	 0	 0	 1	-30	 30;
	 73	 101	 0.0001	 0.01	 0	 235.85	 272.14	 272.14	 0	 0	 1	-30	 30;
	 75	 83	 0.0039	 0.01106	 0.00133	 86	 86	 86	 0	 0	 1	-30	 30;
	 87	 105	 0.00459	 0.02076	 0.00493	 162.7	 195.24	 195.24	 0	 0	 1	-30	 30;
	 88	 96	 0.00489	 0.01777	 0.02057	 115.35	 138.42	 138.42	 0	 0	 1	-30	 30;
	 89	 166	 0.007	 0.03477	 0.01194	 168.55	 202.26	 202.3	 0	 0	 1	-30	 30;
	 90	 168	 0.00109	 0.00996	 0.04927	 509.43	 611.32	 611.32	 0	 0	 1	-30	 30;
	 91	 95	 0.00155	 0.00781	 0.00164	 205.73	 246.88	 246.9	 0	 0	 1	-30	 30;
	 91	 96	 0.00611	 0.02852	 0.00518	 158.34	 190.01	 190.01	 0	 0	 1	-30	 30;
	 91	 109	 0.00353	 0.01029	 0.00176	 183.24	 219.89	 219.9	 0	 0	 1	-30	 30;
	 91	 114	 0.00663	 0.03319	 0.02241	 191.24	 229.49	 229.5	 0	 0	 1	-30	 30;
	 92	 93	 0.00025	 0.00107	 0	 260	 312	 312	 0	 0	 1	-30	 30;
	 92	 94	 0.00283	 0.01445	 0.00512	 169.05	 202.86	 202.9	 0	 0	 1	-30	 30;
	 92	 109	 0.00397	 0.01943	 0.00238	 174.72	 209.66	 209.7	 0	 0	 1	-30	 30;
	 92	 116	 0.00287	 0.01604	 0.00337	 160.13	 192.16	 192.2	 0	 0	 1	-30	 30;
	 95	 120	 0.00431	 0.02468	 0.0088	 180.88	 217.06	 217.1	 0	 0	 1	-30	 30;
	 97	 116	 0.00656	 0.03349	 0.01417	 154	 184.8	 184.8	 0	 0	 1	-30	 30;
	 98	 99	 0.00029	 0.00115	 0	 260	 312	 312	 0	 0	 1	-30	 30;
	 98	 100	 0.00022	 0.00106	 0	 260	 312	 312	 0	 0	 1	-30	 30;
	 100	 108	 0.0007	 0.00202	 0.00064	 140.14	 168.17	 168.2	 0	 0	 1	-30	 30;
	 100	 166	 0.00437	 0.01675	 0.01086	 167.16	 200.59	 200.6	 0	 0	 1	-30	 30;
	 101	 110	 0.00264	 0.00868	 0.00216	 137.92	 159.14	 159.14	 0	 0	 1	-30	 30;
	 101	 121	 0.0049	 0.0229	 0.00559	 151.68	 182.02	 182.02	 0	 0	 1	-30	 30;
	 102	 103	 0.00025	 0.00114	 0	 260	 312	 312	 0	 0	 1	-30	 30;
	 102	 120	 0.00043	 0.00158	 0.00091	 157.07	 188.48	 188.5	 0	 0	 1	-30	 30;
	 102	 180	 0.00502	 0.02903	 0.01836	 191.25	 229.5	 229.5	 0	 0	 1	-30	 30;
	 104	 114	 0.00266	 0.01533	 0.00484	 181.24	 217.49	 217.5	 0	 0	 1	-30	 30;
	 104	 117	 0.00597	 0.01851	 0.00673	 172.04	 206.45	 206.45	 0	 0	 1	-30	 30;
	 104	 134	 0.00454	 0.02003	 0.01038	 157.63	 189.16	 189.2	 0	 0	 1	-30	 30;
	 105	 109	 0.00539	 0.02321	 0.03949	 135.93	 163.12	 163.12	 0	 0	 1	-30	 30;
	 106	 107	 0.00023	 0.00107	 0	 260	 312	 312	 0	 0	 1	-30	 30;
	 106	 121	 0.00584	 0.0304	 0.00662	 155.21	 186.25	 186.3	 0	 0	 1	-30	 30;
	 106	 134	 0.0009	 0.00548	 0.00187	 143.63	 165.73	 165.73	 0	 0	 1	-30	 30;
	 108	 137	 0.00105	 0.00425	 0.00181	 154.81	 185.77	 185.8	 0	 0	 1	-30	 30;
	 108	 140	 0.00101	 0.00541	 0.02259	 134.54	 161.45	 161.45	 0	 0	 1	-30	 30;
	 110	 111	 0.00029	 0.00106	 0	 260	 312	 312	 0	 0	 1	-30	 30;
	 110	 112	 0.00434	 0.02447	 0.00454	 155.75	 186.9	 186.9	 0	 0	 1	-30	 30;
	 110	 120	 0.00351	 0.01474	 0.01554	 167.48	 200.98	 201	 0	 0	 1	-30	 30;
	 112	 113	 0.00023	 0.00107	 0	 260	 312	 312	 0	 0	 1	-30	 30;
	 112	 169	 0.00468	 0.02426	 0.00281	 198.24	 237.89	 237.9	 0	 0	 1	-30	 30;
	 114	 115	 0.0003	 0.00113	 0	 260	 312	 312	 0	 0	 1	-30	 30;
	 116	 127	 0.00708	 0.03915	 0.02737	 173.37	 208.04	 208.04	 0	 0	 1	-30	 30;
	 117	 118	 0.00023	 0.0012	 0	 260	 312	 312	 0	 0	 1	-30	 30;
	 117	 119	 0.00573	 0.0223	 0.00704	 158.77	 190.52	 190.52	 0	 0	 1	-30	 30;
	 117	 128	 0.00553	 0.02109	 0.03803	 157.77	 189.32	 189.32	 0	 0	 1	-30	 30;
	 119	 130	 0.0081	 0.02829	 0.01019	 192.75	 231.3	 231.3	 0	 0	 1	-30	 30;
	 122	 123	 0.00026	 0.00103	 0	 260	 312	 312	 0	 0	 1	-30	 30;
	 122	 124	 0.00028	 0.0011	 0	 260	 312	 312	 0	 0	 1	-30	 30;
	 122	 125	 0.00021	 0.00117	 0	 260	 312	 312	 0	 0	 1	-30	 30;
	 122	 126	 0.00028	 0.00104	 0	 260	 312	 312	 0	 0	 1	-30	 30;
	 124	 130	 0.00333	 0.01122	 0.00305	 203.29	 243.95	 243.95	 0	 0	 1	-30	 30;
	 124	 131	 0.00464	 0.02124	 0.00327	 183.76	 220.51	 220.51	 0	 0	 1	-30	 30;
	 127	 137	 0.00308	 0.013	 0.00362	 145.79	 174.95	 174.95	 0	 0	 1	-30	 30;
	 128	 140	 0.00729	 0.02641	 0.00248	 159.2	 191.04	 191.04	 0	 0	 1	-30	 30;
	 128	 155	 0.00892	 0.04999	 0.07962	 114.85	 137.82	 137.82	 0	 0	 1	-30	 30;
	 129	 133	 0.00124	 0.00945	 0.02918	 644.61	 773.53	 773.53	 0	 0	 1	-30	 30;
	 129	 168	 0.00227	 0.02044	 0.0773	 557.93	 669.52	 669.52	 0	 0	 1	-30	 30;
	 130	 144	 0.01131	 0.05255	 0.02427	 175.67	 210.8	 210.8	 0	 0	 1	-30	 30;
	 131	 140	 0.00948	 0.05027	 0.03674	 189.25	 227.1	 227.1	 0	 0	 1	-30	 30;
	 132	 167	 0.00015	 0.00277	 0.40145	 2701	 3241.2	 3241.2	 0	 0	 1	-30	 30;
	 133	 139	 0.00133	 0.01295	 0.04729	 582.42	 698.9	 698.9	 0	 0	 1	-30	 30;
	 133	 153	 0.00355	 0.0341	 0.08315	 529.41	 635.29	 635.3	 0	 0	 1	-30	 30;
	 136	 139	 0.00021	 0.00111	 0	 260	 312	 312	 0	 0	 1	-30	 30;
	 139	 153	 0.00265	 0.02334	 0.06009	 492.28	 590.74	 590.74	 0	 0	 1	-30	 30;
	 140	 141	 0.00029	 0.001	 0	 260	 312	 312	 0	 0	 1	-30	 30;
	 142	 143	 0.00028	 0.00115	 0	 260	 312	 312	 0	 0	 1	-30	 30;
	 142	 144	 0.00029	 0.00105	 0	 260	 312	 312	 0	 0	 1	-30	 30;
	 142	 145	 0.00028	 0.00108	 0	 260	 312	 312	 0	 0	 1	-30	 30;
	 142	 146	 0.00027	 0.00113	 0	 260	 312	 312	 0	 0	 1	-30	 30;
	 144	 154	 0.00426	 0.01779	 0.00943	 148.11	 177.73	 177.73	 0	 0	 1	-30	 30;
	 147	 148	 0.00022	 0.00111	 0	 260	 312	 312	 0	 0	 1	-30	 30;
	 147	 149	 0.00566	 0.02978	 0.00777	 127.1	 152.52	 152.52	 0	 0	 1	-30	 30;
	 147	 151	 0.00973	 0.05015	 0.00846	 129.37	 155.24	 155.24	 0	 0	 1	-30	 30;
	 149	 151	 0.00103	 0.00411	 0.00208	 182.59	 219.11	 219.11	 0	 0	 1	-30	 30;
	 149	 154	 0.00349	 0.02	 0.00558	 163.49	 196.19	 196.2	 0	 0	 1	-30	 30;
	 150	 152	 0.00025	 0.0011	 0	 260	 312	 312	 0	 0	 1	-30	 30;
	 150	 153	 0.00023	 0.00103	 0	 260	 312	 312	 0	 0	 1	-30	 30;
	 151	 163	 0.01647	 0.0724	 0.01871	 142.37	 170.84	 170.84	 0	 0	 1	-30	 30;
	 155	 163	 0.00244	 0.01291	 0.00325	 137.5	 165	 165	 0	 0	 1	-30	 30;
	 155	 164	 0.07021	 0.34729	 0.05054	 100.36	 120.43	 120.43	 0	 0	 1	-30	 30;
	 156	 157	 0.00021	 0.0011	 0	 260	 312	 312	 0	 0	 1	-30	 30;
	 156	 159	 0.00468	 0.02382	 0.0034	 160.44	 192.53	 192.53	 0	 0	 1	-30	 30;
	 158	 161	 0.00025	 0.00111	 0	 260	 312	 312	 0	 0	 1	-30	 30;
	 161	 168	 0.00404	 0.03468	 0.12316	 536.51	 643.81	 643.81	 0	 0	 1	-30	 30;
	 162	 163	 0.00025	 0.00103	 0	 260	 312	 312	 0	 0	 1	-30	 30;
	 163	 164	 0.04119	 0.21851	 0.05732	 103.08	 123.7	 123.7	 0	 0	 1	-30	 30;
	 164	 165	 0.00025	 0.00117	 0	 260	 312	 312	 0	 0	 1	-30	 30;
	 169	 180	 0.00089	 0.00387	 0.00101	 184.7	 221.64	 221.64	 0	 0	 1	-30	 30;
	 4	 19	 0.003025	 0.01	 0	 260	 312	 312	 1	 0	 1	-30	 30;
	 4	 67	 0.03296	 0.07012	 0	 260	 312	 312	 1	 0	 1	-30	 30;
	 4	 80	 0.03887	 0.07068	 0	 260	 312	 312	 1	 0	 1	-30	 30;
	 10	 5	 0.05554	 0.08411	 0	 260	 312	 312	 1	 0	 1	-30	 30;
	 11	 48	 0.04169	 0.0528	 0	 260	 312	 312	 1	 0	 1	-30	 30;
	 15	 57	 0.00829	 0.01771	 0	 336.91	 388.74	 388.74	 1	 0	 1	-30	 30;
	 15	 72	 0.00841	 0.01768	 0	 56	 67.2	 67.2	 1	 0	 1	-30	 30;
	 21	 12	 0.02483	 0.06428	 0	 260	 312	 312	 0.99	 0	 1	-30	 30;
	 21	 50	 0.02483	 0.06428	 0	 260	 312	 312	 0.99	 0	 1	-30	 30;
	 22	 45	 0.005	 0.02	 0	 260	 312	 312	 1	 0	 1	-30	 30;
	 24	 54	 0.003425	 0.01	 0	 260	 312	 312	 1	 0	 1	-30	 30;
	 26	 70	 0.002325	 0.01	 0	 260	 312	 312	 1	 0	 1	-30	 30;
	 36	 62	 0.02125	 0.06177	 0	 260	 312	 312	 1.0145	 0	 1	-30	 30;
	 37	 25	 0.01233	 0.04031	 0	 260	 312	 312	 1	 0	 1	-30	 30;
	 46	 69	 0.01035	 0.03409	 0	 260	 312	 312	 1.0145	 0	 1	-30	 30;
	 49	 6	 0.0064	 0.02098	 0	 260	 312	 312	 1.0106	 0	 1	-30	 30;
	 49	 23	 0.0064	 0.02098	 0	 105	 105	 105	 1.0106	 0	 1	-30	 30;
	 52	 79	 0.00078	 0.04665	 0	 282	 306	 306	 1	 0	 1	-30	 30;
	 52	 79	 0.0007	 0.04448	 0	 259	 273	 273	 1.0125	 0	 1	-30	 30;
	 53	 9	 0.003923	 0.01215	 0	 260	 312	 312	 1	 0	 1	-30	 30;
	 59	 30	 0.0195	 0.03175	 0	 260	 312	 312	 1	 0	 1	-30	 30;
	 59	 43	 0.0195	 0.03175	 0	 260	 312	 312	 1	 0	 1	-30	 30;
	 61	 81	 0.0101	 0.0403	 0	 260	 312	 312	 1.0094	 0	 1	-30	 30;
	 65	 3	 0.02302	 0.07342	 0	 260	 312	 312	 1	 0	 1	-30	 30;
	 65	 14	 0.02483	 0.06423	 0	 260	 312	 312	 0.99	 0	 1	-30	 30;
	 65	 41	 0.00106	 0.05892	 0	 190	 199	 199	 1.0125	 0	 1	-30	 30;
	 66	 8	 0.004394	 0.01876	 0	 260	 312	 312	 1	 0	 1	-30	 30;
	 66	 71	 0.00323	 0.08494	 0	 129	 136	 136	 1	 0	 1	-30	 30;
	 66	 71	 0.00298	 0.0759	 0	 118	 121	 121	 0.9912	 0	 1	-30	 30;
	 73	 13	 0.002	 0.01	 0	 260	 312	 312	 1	 0	 1	-30	 30;
	 78	 35	 0.01503	 0.03407	 0	 260	 312	 312	 1.0145	 0	 1	-30	 30;
	 85	 34	 0.00075	 0.0454	 0	 256	 269	 269	 1.0187	 0	 1	-30	 30;
	 91	 90	 0.00133	 0.05192	 0	 261.1	 313.32	 313.32	 1.01	 0	 1	-30	 30;
	 91	 90	 0.00133	 0.05192	 0	 261.1	 313.32	 313.32	 1.01	 0	 1	-30	 30;
	 91	 90	 0.00133	 0.05192	 0	 261.1	 313.32	 313.32	 1.01	 0	 1	-30	 30;
	 130	 129	 0.00167	 0.04982	 0	 255.54	 306.65	 306.65	 1	 0	 1	-30	 30;
	 130	 129	 0.00167	 0.04982	 0	 255.54	 306.65	 306.65	 1	 0	 1	-30	 30;
	 130	 129	 0.00167	 0.04982	 0	 255.54	 306.65	 306.65	 1	 0	 1	-30	 30;
	 133	 132	 0.00018	 0.01279	 0	 1028.67	 1234.4	 1234.4	 1	 0	 1	-30	 30;
	 133	 184	 0.00173	 0.08987	 0	 273.39	 300	 300	 1	 0	 1	-30	 30;
	 134	 184	 0.00025	 0.01304	 0	 198.39	 200	 200	 1	 0	 1	-30	 30;
	 135	 184	 0.0073	 0.07981	 0	 75	 300	 300	 1	 0	 1	-30	 30;
	 136	 183	 0.00322	 0.12168	 0	 288.93	 400	 400	 1	 0	 1	-30	 30;
	 137	 183	 0.0018	 0.06808	 0	 180.6	 200	 200	 1	 0	 1	-30	 30;
	 138	 183	 0.0081	 0.10576	 0	 108.33	 300	 300	 1	 0	 1	-30	 30;
	 151	 150	 0.00146	 0.07	 0	 177.75	 213.3	 213.3	 1	 0	 1	-30	 30;
	 158	 182	 0.00264	 0.10748	 0	 386.51	 4000	 4000	 1	 0	 1	-30	 30;
	 159	 182	 0.00136	 0.05548	 0	 181.5	 200	 200	 1	 0	 1	-30	 30;
	 160	 182	 0.00593	 0.04121	 0	 205.01	 300	 300	 1	 0	 1	-30	 30;
	 167	 171	 0.00022	 0.01744	 0	 740.7	 888.84	 888.84	 1	 0	 1	-30	 30;
	 167	 172	 0.00017	 0.01081	 0	 739.74	 887.69	 887.7	 1	 0	 1	-30	 30;
	 167	 173	 0.00015	 0.00947	 0	 739	 886.8	 886.8	 1	 0	 1	-30	 30;
	 167	 174	 0.00027	 0.01531	 0	 736.7	 884.04	 884.04	 1	 0	 1	-30	 30;
	 167	 175	 0.00021	 0.01487	 0	 731.63	 877.96	 878	 1	 0	 1	-30	 30;
	 167	 176	 0.00017	 0.01304	 0	 726.09	 871.31	 871.31	 1	 0	 1	-30	 30;
...
];

mpc_regionR1.gencost = [
%	2           startup     shutdown    n           c(n-1)...c0 
	 2	 0	 0	 3	 0.3016	 13.02	 1978;
	 2	 0	 0	 3	 0.01292	 15.5	 202.5;
	 2	 0	 0	 3	 0	 26.43	 758.4;
	 2	 0	 0	 3	 0.06078	 43.02	 1670;
	 2	 0	 0	 3	 0	 23.65	 672;
	 2	 0	 0	 3	 0.01081	 15.41	 213.7;
	 2	 0	 0	 3	 0	 0.6708	 144.4;
	 2	 0	 0	 3	 0	 77.38	 522.8;
	 2	 0	 0	 3	 0	 2.142	 126.4;
	 2	 0	 0	 3	 0.04435	 39.84	 3035;
	 2	 0	 0	 3	 0	 21.09	 695.5;
	 2	 0	 0	 3	 0	 17.43	 985.6;
	 2	 0	 0	 3	 0.09406	 59.56	 1157;
	 2	 0	 0	 3	 0.06486	 49.21	 1771;
	 2	 0	 0	 3	 0.01329	 16.94	 642.6;
	 2	 0	 0	 3	 1.128	 0	 274.4;
	 2	 0	 0	 3	 0.2192	 0	 1553;
	 2	 0	 0	 3	 0	 44.01	 171.2;
	 2	 0	 0	 3	 0.6552	 24.43	 96.25;
	 2	 0	 0	 3	 0.1304	 1.185	 1232;
	 2	 0	 0	 3	 0.009039	 19.88	 234.2;
	 2	 0	 0	 3	 0	 4.068	 686.1;
	 2	 0	 0	 3	 0.009773	 20.66	 261.7;
	 2	 0	 0	 3	 0	 18.7	 1479;
	 2	 0	 0	 3	 0	 15.78	 691.4;
	 2	 0	 0	 3	 0.1137	 65.7	 871;
	 2	 0	 0	 3	 0	 0.2401	 3335;
	 2	 0	 0	 3	 0.06569	 49.5	 1760;
	 2	 0	 0	 3	 0	 3.714	 633.6;
	 2	 0	 0	 3	 0	 8.259	 333.1;
	 2	 0	 0	 3	 0	 24.7	 1933;
	 2	 0	 0	 3	 0	 398.8	-54750;
	 2	 0	 0	 3	 0	 4.773	 296.4;
	 2	 0	 0	 3	 0	 4.942	 1034;
	 2	 0	 0	 3	 0.06532	 49.14	 2431;
	 2	 0	 0	 3	 0.09032	 37.85	 2199;
	 2	 0	 0	 3	 0.05437	 46.25	 1454;
	 2	 0	 0	 3	 0.04343	 42.71	 801.8;
	 2	 0	 0	 3	 0.09176	 54.42	 2277;
	 2	 0	 0	 3	 0.0519	 45.5	 1326;
	 2	 0	 0	 3	 0	 20.11	 3008;
	 2	 0	 0	 3	 0.09601	 57.54	 1716;
	 2	 0	 0	 3	 0.09265	 56.91	 1655;
	 2	 0	 0	 3	 2.068	 16.72	 111.4;
];


% -------------------- mpc_regionR2 --------------------

mpc_regionR2.version = '2';
mpc_regionR2.baseMVA = 100.0000;
mpc_regionR2.bus = [
%	bus_i       type        Pd          Qd          Gs          Bs          area        Vm          Va          baseKV      zone        Vmax        Vmin        
	 1	 2	 0	 0	 0	-120.31	 1	 0.995	 0	 115	 1	 1.06	 0.93;
	 2	 2	 13.67	 5.4	 0	 0	 1	 0.995	 0	 35	 1	 1.06	 0.93;
	 3	 1	 13	 7.71	 0	 0	 1	 0.995	 0	 35	 1	 1.06	 0.93;
	 4	 1	 0	 0	 0	 0	 1	 0.995	 0	 138	 2	 1.06	 0.93;
	 5	 2	 6.57	 1.62	 0	 0	 1	 0.995	 0	 138	 2	 1.06	 0.93;
	 6	 1	 8.41	 2.36	 0	 0	 1	 0.995	 0	 138	 2	 1.06	 0.93;
	 7	 1	 0	 0	 0	 0	 1	 0.995	 0	 138	 2	 1.06	 0.93;
	 8	 1	 10.03	-13.96	 0	 0	 1	 0.995	 0	 138	 2	 1.06	 0.93;
	 9	 1	 2.87	 0.82	 0	 0	 1	 0.995	 0	 138	 2	 1.06	 0.93;
	 10	 1	 5.12	 1.46	 0	 0	 1	 0.995	 0	 138	 2	 1.06	 0.93;
	 11	 1	 20.75	 5.17	 0	 0	 1	 0.995	 0	 138	 2	 1.06	 0.93;
	 12	 1	 0	 0	 0	 0	 1	 0.995	 0	 138	 2	 1.06	 0.93;
	 13	 1	 0	 0	 0	 0	 1	 0.995	 0	 138	 2	 1.06	 0.93;
	 14	 1	 0	 0	 0	 0	 1	 0.995	 0	 138	 2	 1.06	 0.93;
	 15	 1	 1.53	 0.39	 0	 0	 1	 0.995	 0	 138	 2	 1.06	 0.93;
	 16	 1	 122.75	 40.05	 0	 0	 1	 0.995	 0	 138	 2	 1.06	 0.93;
	 17	 1	 39.04	-9.16	 0	-13.204	 1	 0.995	 0	 138	 2	 1.06	 0.93;
	 18	 1	 4.27	 1.7	 0	 0	 1	 0.995	 0	 138	 2	 1.06	 0.93;
	 19	 1	 8.95	 0.69	 0	 0	 1	 0.995	 0	 138	 2	 1.06	 0.93;
	 20	 1	 2.45	 0.41	 0	 0	 1	 0.995	 0	 138	 2	 1.06	 0.93;
	 21	 1	 1.64	 0.5	 0	 0	 1	 0.995	 0	 138	 2	 1.06	 0.93;
	 22	 1	 0	 0	 0	 0	 1	 0.995	 0	 138	 2	 1.06	 0.93;
	 23	 1	 0	 0	 0	 40.892	 1	 0.995	 0	 138	 2	 1.06	 0.93;
	 24	 1	 4.51	 1.28	 0	 0	 1	 0.995	 0	 138	 2	 1.06	 0.93;
	 25	 1	 0	 0	 0	 0	 1	 0.995	 0	 138	 2	 1.06	 0.93;
	 26	 2	 22.33	 0.56	 0	 0	 1	 0.995	 0	 138	 2	 1.06	 0.93;
	 27	 1	 17.23	 2.73	 0	 0	 1	 0.995	 0	 138	 2	 1.06	 0.93;
	 28	 1	 1.3	 0.08	 0	 0	 1	 0.995	 0	 138	 2	 1.06	 0.93;
	 29	 1	 0	 0	 0	 0	 1	 0.995	 0	 138	 2	 1.06	 0.93;
	 30	 1	 1.01	 0.4	 0	 0	 1	 0.995	 0	 138	 2	 1.06	 0.93;
	 31	 1	 0.81	 0.32	 0	 0	 1	 0.995	 0	 138	 2	 1.06	 0.93;
	 32	 1	 3.94	 0.95	 0	 0	 1	 0.995	 0	 138	 2	 1.06	 0.93;
	 33	 1	 0	 0	 0	 0	 1	 0.995	 0	 138	 2	 1.06	 0.93;
	 34	 1	 8.21	 0.78	 0	 0	 1	 0.995	 0	 138	 2	 1.06	 0.93;
	 35	 1	 0	 0	 0	 0	 1	 0.995	 0	 138	 2	 1.06	 0.93;
	 36	 1	 11.14	 2.78	 0	 0	 1	 0.995	 0	 138	 2	 1.06	 0.93;
	 37	 1	 0	 0	 0	 0	 1	 0.995	 0	 138	 2	 1.06	 0.93;
	 38	 2	 9.19	 2.12	 0	 0	 1	 0.995	 0	 138	 2	 1.06	 0.93;
	 39	 1	 0	 0	 0	 0	 1	 0.995	 0	 138	 2	 1.06	 0.93;
	 40	 1	 6.97	 1.94	 0	 0	 1	 0.995	 0	 138	 2	 1.06	 0.93;
	 41	 1	 6.57	 1.84	 0	 0	 1	 0.995	 0	 138	 2	 1.06	 0.93;
	 42	 2	 0	 0	 0	 0	 1	 0.995	 0	 138	 2	 1.06	 0.93;
	 43	 1	 0	 0	 0	 0	 1	 0.995	 0	 138	 2	 1.06	 0.93;
	 44	 1	 8.15	 1.52	 0	 0	 1	 0.995	 0	 138	 2	 1.06	 0.93;
	 45	 1	 11.39	 2.06	 0	 0	 1	 0.995	 0	 138	 2	 1.06	 0.93;
	 46	 1	 3.3	 0.57	 0	 0	 1	 0.995	 0	 138	 2	 1.06	 0.93;
	 47	 1	 0	 0	 0	 0	 1	 0.995	 0	 138	 2	 1.06	 0.93;
	 48	 1	 18.14	 4.79	 0	 0	 1	 0.995	 0	 138	 2	 1.06	 0.93;
	 49	 1	 17.2	 4.97	 0	 0	 1	 0.995	 0	 138	 2	 1.06	 0.93;
	 50	 1	 6.34	 1.75	 0	 0	 1	 0.995	 0	 138	 2	 1.06	 0.93;
	 51	 1	 3.94	 1.07	 0	 0	 1	 0.995	 0	 138	 2	 1.06	 0.93;
	 52	 1	 35.3	-1.73	 0	 0	 1	 0.995	 0	 138	 2	 1.06	 0.93;
	 53	 1	 0	 0	 0	 0	 1	 0.995	 0	 345	 3	 1.06	 0.93;
	 54	 1	 73.29	 17.07	 0	 0	 1	 0.995	 0	 345	 3	 1.06	 0.93;
	 55	 1	 418.95	 22.77	 0	 0	 1	 0.995	 0	 345	 3	 1.06	 0.93;
	 56	 1	 0	 0	 0	 0	 1	 0.995	 0	 345	 3	 1.06	 0.93;
	 57	 1	 118.76	 46.27	 0	 0	 1	 0.995	 0	 345	 3	 1.06	 0.93;
	 58	 1	 0	 0	 0	 0	 1	 0.995	 0	 345	 3	 1.06	 0.93;
	 59	 1	 0	 0	 0	 0	 1	 0.995	 0	 345	 3	 1.06	 0.93;
	 60	 1	 0	 0	 0	 0	 1	 0.995	 0	 345	 3	 1.06	 0.93;
	 61	 1	 659.88	-1.01	 0	-1.094	 1	 0.995	 0	 500	 3	 1.06	 0.93;
	 62	 1	 49.35	 53.48	 0	 0	 1	 0.995	 0	 345	 3	 1.06	 0.93;
	 63	 2	 71.13	 94.56	 0	 0	 1	 0.995	 0	 345	 3	 1.06	 0.93;
	 64	 3	 92.06	 123.25	 0	 0	 1	 0.995	 0	 500	 3	 1.06	 0.93;
	 65	 2	 1633.49	 292.45	 0	 0	 1	 0.995	 0	 500	 3	 1.06	 0.93;
	 66	 1	 573.93	 86.87	 0	 0	 1	 0.995	 0	 500	 3	 1.06	 0.93;
	 67	 1	 109.41	 60.34	 0	 0	 1	 0.995	 0	 345	 3	 1.06	 0.93;
	 68	 1	 69.9	-55.81	 0	 0	 1	 0.995	 0	 345	 3	 1.06	 0.93;
	 69	 1	 39.85	-2.77	 0	 0	 1	 0.995	 0	 345	 3	 1.06	 0.93;
	 70	 1	 21.55	 26.23	 0	 0	 1	 0.995	 0	 345	 3	 1.06	 0.93;
	 71	 1	 0	 0	 0	 0	 1	 0.995	 0	 345	 3	 1.06	 0.93;
	 72	 1	 230.3	 57.11	 0	 0	 1	 0.995	 0	 345	 3	 1.06	 0.93;
	 73	 1	 0	 0	 0	 0	 1	 0.995	 0	 500	 3	 1.06	 0.93;
	 74	 2	 0	 0	 0	 0	 1	 0.995	 0	 500	 3	 1.06	 0.93;
	 75	 1	 11.41	 39.44	 0	 0	 1	 0.995	 0	 345	 3	 1.06	 0.93;
	 76	 1	 75.99	 41.5	 0	 0	 1	 0.995	 0	 500	 3	 1.06	 0.93;
	 77	 2	 488.69	 7.4	 0	 0	 1	 0.995	 0	 345	 3	 1.06	 0.93;
	 78	 1	 5.91	 1.03	 0	 0	 1	 0.995	 0	 138	 3	 1.06	 0.93;
	 79	 1	 3.48	 1.14	 0	 0	 1	 0.995	 0	 138	 3	 1.06	 0.93;
	 80	 1	 2.42	 0.41	 0	 0	 1	 0.995	 0	 138	 3	 1.06	 0.93;
	 81	 1	 6.81	 1.13	 0	 0	 1	 0.995	 0	 138	 3	 1.06	 0.93;
	 82	 1	 21.31	 7.97	 0	 0	 1	 0.995	 0	 138	 3	 1.06	 0.93;
	 83	 1	 29.95	 11.53	 0	 0	 1	 0.995	 0	 138	 3	 1.06	 0.93;
	 84	 1	 0	 0	 0	 0	 1	 0.995	 0	 138	 3	 1.06	 0.93;
	 85	 1	 122.71	 9.44	 0	 0	 1	 0.995	 0	 138	 3	 1.06	 0.93;
	 86	 2	 30.69	 41.08	 0	 0	 1	 0.995	 0	 24	 3	 1.06	 0.93;
	 87	 1	 31.35	 21.18	 0	 0	 1	 0.995	 0	 138	 3	 1.06	 0.93;
	 88	 1	 56.01	 12.34	 0	 0	 1	 0.995	 0	 138	 3	 1.06	 0.93;
	 89	 1	 127.47	 11.13	 0	 0	 1	 0.995	 0	 138	 3	 1.06	 0.93;
	 90	 1	 0.23	 0.69	 0	 0	 1	 0.995	 0	 138	 3	 1.06	 0.93;
	 91	 1	 28.42	 12.58	 0	 0	 1	 0.995	 0	 138	 3	 1.06	 0.93;
	 92	 1	 21.62	 6.3	 0	 0	 1	 0.995	 0	 138	 3	 1.06	 0.93;
	 93	 1	 107.83	 21.04	 0	 0	 1	 0.995	 0	 138	 3	 1.06	 0.93;
	 94	 1	 0	 0	 0	 0	 1	 0.995	 0	 138	 3	 1.06	 0.93;
	 95	 2	 8.62	 1.23	 0	 0	 1	 0.995	 0	 138	 3	 1.06	 0.93;
	 96	 1	 42.86	 16.01	 0	 0	 1	 0.995	 0	 138	 3	 1.06	 0.93;
	 97	 1	 5.45	 0.31	 0	 0	 1	 0.995	 0	 138	 3	 1.06	 0.93;
	 98	 1	 3.64	 0.62	 0	 0	 1	 0.995	 0	 138	 3	 1.06	 0.93;
	 99	 1	 5.45	 0.62	 0	 0	 1	 0.995	 0	 138	 3	 1.06	 0.93;
	 100	 1	 3.18	 0.41	 0	 0	 1	 0.995	 0	 138	 3	 1.06	 0.93;
	 101	 1	 2.63	-8.72	 0	 0	 1	 0.995	 0	 138	 3	 1.06	 0.93;
	 102	 1	 1.81	 0.31	 0	 0	 1	 0.995	 0	 138	 3	 1.06	 0.93;
	 103	 1	 0.61	 0.1	 0	 0	 1	 0.995	 0	 138	 3	 1.06	 0.93;
	 104	 1	 125.05	 88.22	 0	 0	 1	 0.995	 0	 345	 5	 1.06	 0.93;
	 105	 1	 0	 0	 0	 0	 1	 0.995	 0	 500	 5	 1.06	 0.93;
	 106	 1	 0	 0	 0	-30.025	 1	 0.995	 0	 500	 5	 1.06	 0.93;
	 107	 1	 0	 0	 0	 0	 1	 0.995	 0	 500	 5	 1.06	 0.93;
	 108	 1	 0	 0	 0	 0	 1	 0.995	 0	 500	 5	 1.06	 0.93;
	 109	 1	 0	 0	 0	 0	 1	 0.995	 0	 500	 5	 1.06	 0.93;
	 110	 2	 0	 0	 0	 0	 1	 0.995	 0	 500	 5	 1.06	 0.93;
	 111	 1	 0	 0	 0	 0	 1	 0.995	 0	 500	 5	 1.06	 0.93;
	 112	 1	 322.52	 23.79	 0	 24.399	 1	 0.995	 0	 500	 5	 1.06	 0.93;
	 113	 1	 0	 0	 0	-71.188	 1	 0.995	 0	 345	 5	 1.06	 0.93;
	 114	 1	 0	 0	 0	 0	 1	 0.995	 0	 500	 5	 1.06	 0.93;
	 115	 1	 0	 0	 0	 0	 1	 0.995	 0	 500	 5	 1.06	 0.93;
	 116	 1	 129.81	 60.16	 0	 60.608	 1	 0.995	 0	 500	 5	 1.06	 0.93;
	 117	 1	 0	 0	 0	 71.9997426832	 1	 0.995	 0	 500	 5	 1.06	 0.93;
	 118	 1	 0	 0	 0	 0	 1	 0.995	 0	 500	 5	 1.06	 0.93;
	 119	 1	 16.88	 41.08	 0	 0	 1	 0.995	 0	 500	 5	 1.06	 0.93;
	 120	 1	 7.67	 10.27	 0	 0	 1	 0.995	 0	 500	 5	 1.06	 0.93;
	 121	 1	 10.63	 3.19	 0	 0	 1	 0.995	 0	 138	 5	 1.06	 0.93;
	 122	 2	 22.48	 1.03	 0	 0	 1	 0.995	 0	 138	 5	 1.06	 0.93;
	 123	 1	 12.49	 1.36	 0	 0	 1	 0.995	 0	 138	 5	 1.06	 0.93;
	 124	 1	 6.47	 1.03	 0	 0	 1	 0.995	 0	 138	 5	 1.06	 0.93;
	 125	 1	 17.74	 0.01	 0	-9.534	 1	 0.995	 0	 138	 5	 1.06	 0.93;
	 126	 1	 237.01	 75.02	 0	 0	 1	 0.995	 0	 138	 5	 1.06	 0.93;
	 127	 1	 102.86	 34.9	 0	 0	 1	 0.995	 0	 138	 5	 1.06	 0.93;
	 128	 1	 0	 0	 0	 53.9998048975	 1	 0.995	 0	 32	 5	 1.06	 0.93;
	 129	 1	 0	 0	 0	 11.017	 1	 0.995	 0	 138	 5	 1.06	 0.93;
	 130	 1	 54.81	 10.36	 0	 0	 1	 0.995	 0	 138	 5	 1.06	 0.93;
	 131	 1	 8.01	 2.17	 0	 0	 1	 0.995	 0	 138	 5	 1.06	 0.93;
	 132	 1	 4.01	 1.03	 0	 0	 1	 0.995	 0	 138	 5	 1.06	 0.93;
	 133	 1	 0.01	 0.01	 0	 0	 1	 0.995	 0	 138	 5	 1.06	 0.93;
	 134	 2	 0.01	 0.01	 0	 0	 1	 0.995	 0	 138	 5	 1.06	 0.93;
	 135	 1	 24.24	-0.7	 0	-5.842	 1	 0.995	 0	 138	 5	 1.06	 0.93;
	 136	 1	 25.75	 4.85	 0	 0	 1	 0.995	 0	 138	 5	 1.06	 0.93;
	 137	 1	 0	 0	 0	 0.000892479146111	 1	 0.995	 0	 16	 5	 1.06	 0.93;
	 138	 1	 16.65	 1.03	 0	 0	 1	 0.995	 0	 138	 5	 1.06	 0.93;
	 139	 1	 20.96	 2.68	 0	 12.518	 1	 0.995	 0	 138	 5	 1.06	 0.93;
	 140	 2	 22.51	 3.19	 0	 0	 1	 0.995	 0	 138	 5	 1.06	 0.93;
	 141	 1	 11.57	 1.03	 0	 0	 1	 0.995	 0	 138	 5	 1.06	 0.93;
	 142	 1	 8.79	 1.03	 0	 0	 1	 0.995	 0	 138	 5	 1.06	 0.93;
	 143	 1	 14.5	 2.68	 0	 0.00349581693089	 1	 0.995	 0	 138	 5	 1.06	 0.93;
	 144	 1	 6.47	 1.03	 0	 0	 1	 0.995	 0	 138	 5	 1.06	 0.93;
	 145	 1	 44.39	 13.32	 0	 0	 1	 0.995	 0	 138	 5	 1.06	 0.93;
	 146	 1	 35.46	 8.57	 0	 0	 1	 0.995	 0	 138	 5	 1.06	 0.93;
	 147	 1	 30.52	 7.01	 0	 0	 1	 0.995	 0	 138	 5	 1.06	 0.93;
	 148	 1	 12.8	 2.78	 0	 0	 1	 0.995	 0	 138	 5	 1.06	 0.93;
	 149	 1	 25.75	 6.5	 0	 0	 1	 0.995	 0	 138	 5	 1.06	 0.93;
	 150	 1	 22.51	 3.19	 0	 0	 1	 0.995	 0	 138	 5	 1.06	 0.93;
	 151	 1	 5.36	 0	 0	 0	 1	 0.995	 0	 138	 5	 1.06	 0.93;
	 152	 1	 11.25	 2.17	 0	 0	 1	 0.995	 0	 138	 5	 1.06	 0.93;
	 153	 1	 8.01	 0.51	 0	 0	 1	 0.995	 0	 138	 5	 1.06	 0.93;
	 154	 1	 0	 0	 0	-0.0237680023282	 1	 0.995	 0	 138	 5	 1.06	 0.93;
	 155	 1	 0	 0	 0	-6.9892635799	 1	 0.995	 0	 138	 5	 1.06	 0.93;
	 156	 1	 12.83	-0.06	 0	 0	 1	 0.995	 0	 138	 5	 1.06	 0.93;
	 157	 1	 33.02	 0.66	 0	 0	 1	 0.995	 0	 138	 5	 1.06	 0.93;
	 158	 1	 16.04	 1.03	 0	 0	 1	 0.995	 0	 138	 5	 1.06	 0.93;
	 159	 1	 12.8	 3.19	 0	 0	 1	 0.995	 0	 138	 5	 1.06	 0.93;
	 160	 1	 0	 0	 0	 0	 1	 0.995	 0	 138	 5	 1.06	 0.93;
	 161	 1	 22.51	 3.19	 0	 0	 1	 0.995	 0	 138	 5	 1.06	 0.93;
	 162	 1	 46.71	 4.33	 0	 0	 1	 0.995	 0	 138	 5	 1.06	 0.93;
	 163	 1	 28.98	 4.85	 0	 0	 1	 0.995	 0	 138	 5	 1.06	 0.93;
	 164	 2	 17.72	 1.03	 0	 0	 1	 0.995	 0	 138	 5	 1.06	 0.93;
	 165	 1	 27.28	 4.33	 0	 0	 1	 0.995	 0	 138	 5	 1.06	 0.93;
	 166	 1	 0	 0	 0	 0	 1	 0.995	 0	 138	 5	 1.06	 0.93;
	 167	 1	 0	 0	 0	-0.0224910764389	 1	 0.995	 0	 138	 5	 1.06	 0.93;
	 168	 1	 0	 0	 0	-7.22356036406	 1	 0.995	 0	 138	 5	 1.06	 0.93;
	 169	 1	 0	 0	 0	 0	 1	 0.995	 0	 500	 5	 1.06	 0.93;
	 170	 2	 0	 0	 0	 0	 1	 0.995	 0	 345	 6	 1.06	 0.93;
	 171	 1	 0	 0	 0	 0	 1	 0.995	 0	 345	 6	 1.06	 0.93;
	 172	 1	 11.12	 4.11	 0	 0	 1	 0.995	 0	 138	 6	 1.06	 0.93;
	 173	 1	 0	 0	 0	 0	 1	 0.995	 0	 138	 6	 1.06	 0.93;
	 174	 1	 5.29	 0.72	 0	 0	 1	 0.995	 0	 138	 6	 1.06	 0.93;
	 175	 1	 14.38	 2.44	 0	 0	 1	 0.995	 0	 138	 6	 1.06	 0.93;
	 176	 2	 1.52	 0.31	 0	 0	 1	 0.995	 0	 138	 6	 1.06	 0.93;
	 177	 2	 0	 0	 0	 0	 1	 0.995	 0	 138	 6	 1.06	 0.93;
	 178	 1	 51.77	 10.1	 0	 0	 1	 0.995	 0	 138	 6	 1.06	 0.93;
	 179	 1	 8.9	 5.61	 0	 19.281	 1	 0.995	 0	 138	 6	 1.06	 0.93;
	 180	 1	 0	 0	 0	 0	 1	 0.995	 0	 138	 6	 1.06	 0.93;
	 181	 1	 7.56	 1.44	 0	 0	 1	 0.995	 0	 138	 6	 1.06	 0.93;
	 182	 1	 20.44	 4.3	 0	 0	 1	 0.995	 0	 138	 6	 1.06	 0.93;
	 183	 1	 20.44	 4.3	 0	 0	 1	 0.995	 0	 138	 6	 1.06	 0.93;
	 184	 1	 18.17	 3.94	 0	 0	 1	 0.995	 0	 138	 6	 1.06	 0.93;
	 185	 1	 35.26	 7.19	 0	 0	 1	 0.995	 0	 138	 6	 1.06	 0.93;
	 186	 1	 15.9	 4.21	 0	 0	 1	 0.995	 0	 138	 6	 1.06	 0.93;
	 187	 1	 15.9	 4.21	 0	 0	 1	 0.995	 0	 138	 6	 1.06	 0.93;
	 188	 1	 28.75	 6.84	 0	 0	 1	 0.995	 0	 138	 6	 1.06	 0.93;
	 189	 1	 28.75	 6.84	 0	 0	 1	 0.995	 0	 138	 6	 1.06	 0.93;
	 190	 1	 12.11	 2.46	 0	 0	 1	 0.995	 0	 138	 6	 1.06	 0.93;
	 191	 1	 12.11	 2.46	 0	 0	 1	 0.995	 0	 138	 6	 1.06	 0.93;
	 192	 1	 48.29	 40.73	 0	 32.216	 1	 0.995	 0	 138	 6	 1.06	 0.93;
	 193	 1	 14.38	 2.93	 0	 0	 1	 0.995	 0	 138	 6	 1.06	 0.93;
	 194	 1	 12.11	 2.55	 0	 0	 1	 0.995	 0	 138	 6	 1.06	 0.93;
	 195	 1	 12.11	 2.55	 0	 0	 1	 0.995	 0	 138	 6	 1.06	 0.93;
	 196	 1	 31.79	 11.01	 0	 0	 1	 0.995	 0	 138	 6	 1.06	 0.93;
	 197	 1	 9.08	 1.66	 0	 0	 1	 0.995	 0	 138	 6	 1.06	 0.93;
	 198	 1	 9.08	 1.66	 0	 0	 1	 0.995	 0	 138	 6	 1.06	 0.93;
	 199	 1	 19.81	 6.48	 0	 0	 1	 0.995	 0	 138	 6	 1.06	 0.93;
	 200	 1	 0	 0	 0	 0	 1	 0.995	 0	 138	 6	 1.06	 0.93;
...
];

mpc_regionR2.gen = [
%	bus         Pg          Qg          Qmax        Qmin        Vg          mBase       status      Pmax        Pmin        Pc1         Pc2         Qc1min      Qc1max      Qc2min      Qc2max      ramp_agc    ramp_10     ramp_30     ramp_q      apf         
	 1	 399.5	 0	 399	-399	 0.995	 100	 1	 798	 1;
	 2	 18.95825	-18.734	 66.11	-103.578	 0.995	 100	 1	 36	 1.9165;
	 5	 10.25	 0	 43.92	-43.92	 0.995	 100	 1	 18	 2.5;
	 16	 0	 0	 153	-153	 0.995	 25	 0	 306	 5;
	 16	 0	 0	 34	-34	 0.995	 25	 0	 68	 5;
	 16	 0	 0	 42	-42	 0.995	 30	 0	 83	 5;
	 16	 0	 0	 110	-110	 0.995	 25	 0	 219	 5;
	 23	 0	 0	 33.333	-33.333	 0.995	 100	 0	 62	 23.733;
	 26	 32.50925	 0	 160	-160	 0.995	 100	 1	 65	 0.0185;
	 38	 16.5	 0	 43.92	-43.92	 0.995	 100	 1	 28	 5;
	 42	 121.03325	 0	 160	-160	 0.995	 100	 1	 233	 9.0665;
	 62	 0	 0	 123.333	-123.333	 0.995	 370	 0	 188	 120;
	 62	 0	 0	 558	-558	 0.995	 370	 0	 1116	 120;
	 62	 0	 0	 157.837	-64	 0.995	 449.45	 0	 128	 120;
	 63	 513.5	 0	 454	-454	 0.995	 455.56	 1	 907	 120;
	 63	 0	 0	 135.42	-35	 0.995	 397.31	 0	 70	 240;
	 64	 495.719	 0	 483	-483	 0.995	 616.84	 1	 966	 25.438;
	 64	 266.219	 0	 254	-254	 0.995	 616.84	 1	 507	 25.438;
	 64	 288.719	 0	 276	-276	 0.995	 616.84	 1	 552	 25.438;
	 65	 0	 0	 169.275	-32	 0.995	 451.84	 0	 64	 240;
	 65	 757	 0	 697	-697	 0.995	 416.51	 1	 1394	 120;
	 65	 508.5	 0	 449	-449	 0.995	 416.51	 1	 897	 120;
	 74	 475.275	 0	 465	-465	 0.995	 100	 1	 929	 21.55;
	 77	 0	 0	 50.325	-45	 0.995	 166.81	 0	 89	 45.8335;
	 77	 1038	 0	 1038	-1038	 0.995	 120	 1	 2075	 1;
	 86	 195	 9.8625	 160.125	-140.4	 0.995	 477.9	 1	 270	 120;
	 90	 0	 0	 10.98	-10.98	 0.995	 30	 0	 20	 1;
	 95	 264.5	 0	 264	-264	 0.995	 0.43	 1	 528	 1;
	 106	 0	 0	 120	-120	 0.995	 100	 0	 240	 61.4825;
	 110	 509.75875	 0	 478	-478	 0.995	 100	 1	 955	 64.5175;
	 113	 0	 0	 88	-88	 0.995	 100	 0	 175	 13.5145;
	 119	 0	 0	 92.945	-62	 0.995	 216.55	 0	 78	 49.769;
	 119	 0	 0	 98	-98	 0.995	 179	 0	 196	 49.769;
	 119	 0	 0	 92.945	-75	 0.995	 179	 0	 63	 49.769;
	 120	 0	 0	 65.514	-65.514	 0.995	 179	 0	 40	 1;
	 122	 248	 0	 242	-242	 0.995	 58.99	 1	 483	 13;
	 123	 0	 0	 23	-23	 0.995	 55	 0	 46	 13;
	 124	 0	 0	 119	-119	 0.995	 0.36	 0	 237	 1;
	 125	 0	 0	 9.516	-9.516	 0.995	 26	 0	 2	 1;
	 125	 0	 0	 33.333	-33.333	 0.995	 100	 0	 34	 1.6465;
	 129	 0	 0	 33.333	-33.333	 0.995	 100	 0	 30	 9.0175;
	 133	 0	 0	 8	-8	 0.995	 18	 0	 15	 1;
	 134	 35.5	 0	 35	-35	 0.995	 22	 1	 70	 1;
	 139	 0	 0	 33.333	-33.333	 0.995	 100	 0	 61	 6.539;
	 140	 67	 0	 108.336	-108.336	 0.995	 0.24	 1	 133	 1;
	 143	 0	 0	 97.722	-97.722	 0.995	 2	 0	 15	 1;
	 149	 0	 0	 94.794	-94.794	 0.995	 1	 0	 139	 1;
	 150	 0	 0	 139	-139	 0.995	 1.08	 0	 277	 1;
	 156	 0	 0	 107.97	-107.97	 0.995	 0.12	 0	 44	 1;
	 162	 0	 0	 100.65	-100.65	 0.995	 9	 0	 80	 1;
	 164	 5.5	 0	 101.016	-101.016	 0.995	 0.24	 1	 10	 1;
	 170	 217.445	 0	 217	-217	 0.995	 100	 1	 433	 1.89;
	 176	 14.47875	 0	 160	-160	 0.995	 100	 1	 23	 5.9575;
	 177	 302.5975	 0	 297	-297	 0.995	 100	 1	 594	 11.195;
	 179	 0	 0	 40	-40	 0.995	 4	 0	 79	 1.5;
	 199	 0	 0	 11.667	-11.667	 0.995	 35	 0	 5	 4.5;
	 199	 0	 0	 194	-194	 0.995	 24.12	 0	 387	 4.5;
	 200	 0	 0	 16	-16	 0.995	 35	 0	 31	 4.5;
	 200	 0	 0	 18	-18	 0.995	 30	 0	 36	 4.5;
	 200	 0	 0	 144	-144	 0.995	 28	 0	 288	 4.5;
	 207	 0	 0	 33.333	-33.333	 0.995	 100	 0	 43	 35.3845;
	 209	 123.25	 0	 93.6	-93.6	 0.995	 253.76	 1	 179	 67.5;
	 210	 0	 0	 68.333	-68.333	 0.995	 205	 0	 14	 135;
	 210	 0	 0	 84.912	-31	 0.995	 232	 0	 18	 100;
	 210	 149.5	 0	 183	-183	 0.995	 222	 1	 298	 1;
	 211	 0	 0	 133	-133	 0.995	 268.92	 0	 266	 45;
	 212	 0	 0	 77.333	-77.333	 0.995	 232	 0	 154	 50;
	 212	 0	 0	 91.5	-15	 0.995	 268.92	 0	 3	 90;
	 218	 612.223	 0	 594	-594	 0.995	 100	 1	 1188	 36.446;
	 222	 0	 0	 82	-82	 0.995	 100	 0	 164	 29.9745;
	 226	 182.5	 0	 160	-160	 0.995	 222	 1	 320	 45;
	 229	 0	 0	 47	-47	 0.995	 1	 0	 94	 1;
	 232	 0	 0	 127	-127	 0.995	 20	 0	 253	 2.5;
	 240	 0	 0	 11	-11	 0.995	 26	 0	 21	 1;
	 248	 0	 0	 103	-103	 0.995	 1	 0	 206	 1;
	 249	 133.5	 0	 133	-133	 0.995	 2	 1	 266	 1;
	 252	 0	 0	 147	-147	 0.995	 100	 0	 293	 2.901;
	 254	 10.5	 0	 18.3	-18.3	 0.995	 50	 1	 20	 1;
	 259	 368.5	 0	 368	-368	 0.995	 108.13	 1	 736	 1;
	 262	 323.73775	 0	 321	-321	 0.995	 100	 1	 642	 5.4755;
	 263	 15.86075	 0	 160	-160	 0.995	 100	 1	 24	 7.7215;
	 268	 0	 0	 33.333	-33.333	 0.995	 100	 0	 4	 70.248;
	 269	 0	 0	 264	-264	 0.995	 100	 0	 527	 103.394;
	 274	 95.12075	 10.9275	 92.855	-71	 0.995	 216.55	 1	 141	 49.2415;
	 274	 0	 0	 100	-100	 0.995	 179	 0	 199	 49.2415;
	 274	 84.62075	 8.9275	 92.855	-75	 0.995	 179	 1	 120	 49.2415;
	 275	 241	 0	 241	-241	 0.995	 179	 1	 481	 1;
	 277	 5	 0	 183	-183	 0.995	 100	 1	 9	 1;
	 278	 0	 0	 20.13	-20.13	 0.995	 58.99	 0	 37	 13;
	 279	 0	 0	 28	-28	 0.995	 55	 0	 55	 13;
	 281	 6.5	 0	 98.82	-98.82	 0.995	 0.36	 1	 12	 1;
	 281	 2.5	 0	 183	-183	 0.995	 100	 1	 4	 1;
	 287	 5.5	 0	 6.588	-6.588	 0.995	 18	 1	 10	 1;
	 288	 0	 0	 8.052	-8.052	 0.995	 22	 0	 4	 1;
	 294	 2	 0	 108.702	-108.702	 0.995	 0.24	 1	 3	 1;
	 294	 6.5	 0	 183	-183	 0.995	 100	 1	 12	 1;
	 301	 7	 0	 100.284	-100.284	 0.995	 2	 1	 13	 1;
	 302	 112.5	 0	 112	-112	 0.995	 15	 1	 224	 1;
	 306	 0	 0	 176	-176	 0.995	 1	 0	 351	 1;
	 311	 2	 0	 107.97	-107.97	 0.995	 0.12	 1	 3	 1;
	 311	 0	 0	 147	-147	 0.995	 100	 0	 293	 9.72;
	 315	 5.5	 0	 98.088	-98.088	 0.995	 9	 1	 10	 1;
	 317	 4	 0	 106.506	-106.506	 0.995	 0.24	 1	 7	 1;
	 317	 4.5	 0	 183	-183	 0.995	 100	 1	 8	 1;
	 320	 2	 0	 183	-183	 0.995	 100	 1	 3	 1;
];

mpc_regionR2.branch = [
%	fbus        tbus        r           x           b           rateA       rateB       rateC       ratio       angle       status      angmin      angmax      
	 1	 17	 0.0001	 0.01	 0	 152.75	 183.3	 183.3	 1	 0	 1	-30	 30;
	 1	 93	 0.0001	 0.01	 0	 300	 400	 400	 1	 0	 1	-30	 30;
	 4	 5	 8e-05	 0.00083	 0	 634.11	 731.66	 731.7	 0	 0	 1	-30	 30;
	 4	 33	 0.00364	 0.01149	 0.00123	 644.69	 743.87	 743.9	 0	 0	 1	-30	 30;
	 5	 39	 0.00653	 0.02058	 0.00222	 628.23	 724.88	 724.9	 0	 0	 1	-30	 30;
	 6	 7	 8e-05	 0.00083	 0	 438	 438	 438	 0	 0	 1	-30	 30;
	 6	 18	 0.00488	 0.01231	 0.00189	 74.62	 97.01	 97.01	 0	 0	 1	-30	 30;
	 7	 47	 0.00074	 0.00223	 0.0003	 62	 62	 62	 0	 0	 1	-30	 30;
	 8	 33	 0.00157	 0.00463	 0.00057	 653.46	 753.99	 754	 0	 0	 1	-30	 30;
	 8	 311	 0.0001	 0.01	 0	 667.77	 770.51	 770.51	 0	 0	 1	-30	 30;
	 9	 10	 8e-05	 0.00083	 0	 438	 438	 438	 0	 0	 1	-30	 30;
	 9	 18	 0.00455	 0.01289	 0.00174	 62	 62	 62	 0	 0	 1	-30	 30;
	 10	 51	 0.00603	 0.01711	 0.00231	 62	 62	 62	 0	 0	 1	-30	 30;
	 11	 12	 8e-05	 0.00083	 0	 438	 438	 438	 0	 0	 1	-30	 30;
	 11	 13	 0.0005	 0.00149	 0.0096	 98	 98	 98	 0	 0	 1	-30	 30;
	 13	 16	 8e-05	 0.00066	 7e-05	 132	 152.31	 152.31	 0	 0	 1	-30	 30;
	 13	 42	 0.00207	 0.01413	 0.00162	 154.01	 177.7	 177.7	 0	 0	 1	-30	 30;
	 14	 15	 8e-05	 0.00083	 0	 438	 438	 438	 0	 0	 1	-30	 30;
	 14	 18	 0.00405	 0.01331	 0.00135	 107.11	 123.59	 123.6	 0	 0	 1	-30	 30;
	 15	 41	 0.01025	 0.02926	 0.0039	 107.37	 123.89	 123.9	 0	 0	 1	-30	 30;
	 17	 37	 0.00686	 0.02215	 0.00232	 174.85	 209.82	 209.82	 0	 0	 1	-30	 30;
	 18	 42	 0.01694	 0.05562	 0.0056	 95.16	 109.8	 109.8	 0	 0	 1	-30	 30;
	 19	 25	 0.00992	 0.01661	 0.00395	 109.6	 126.46	 126.5	 0	 0	 1	-30	 30;
	 19	 29	 0.02496	 0.03802	 0.00491	 39	 39	 39	 0	 0	 1	-30	 30;
	 19	 49	 0.0062	 0.01562	 0.00277	 62	 62	 62	 0	 0	 1	-30	 30;
	 20	 21	 8e-05	 0.00083	 0	 438	 438	 438	 0	 0	 1	-30	 30;
	 20	 22	 0.0105	 0.02983	 0.00402	 62	 62	 62	 0	 0	 1	-30	 30;
	 21	 52	 0.01909	 0.05413	 0.00729	 62	 62	 62	 0	 0	 1	-30	 30;
	 22	 23	 8e-05	 0.00083	 0	 438	 438	 438	 0	 0	 1	-30	 30;
	 22	 30	 0.00628	 0.01959	 0.00217	 62	 62	 62	 0	 0	 1	-30	 30;
	 22	 45	 0.00083	 0.00248	 0.00027	 62	 62	 62	 0	 0	 1	-30	 30;
	 23	 31	 0.0062	 0.01942	 0.00215	 62	 62	 62	 0	 0	 1	-30	 30;
	 23	 35	 0.01587	 0.05182	 0.00527	 62	 62	 62	 0	 0	 1	-30	 30;
	 23	 48	 0.00124	 0.00355	 0.00045	 62	 62	 62	 0	 0	 1	-30	 30;
	 23	 50	 0.00198	 0.00529	 0.00071	 50	 50	 50	 0	 0	 1	-30	 30;
	 23	 284	 0.0001	 0.01	 0	 106.7	 123.11	 123.11	 0	 0	 1	-30	 30;
	 24	 25	 0.00223	 0.00562	 0.0006	 50	 50	 50	 0	 0	 1	-30	 30;
	 25	 42	 0.01471	 0.03025	 0.00563	 110.38	 127.36	 127.4	 0	 0	 1	-30	 30;
	 26	 27	 8e-05	 0.00083	 0	 438	 438	 438	 0	 0	 1	-30	 30;
	 26	 135	 0.0001	 0.01	 0	 151.46	 174.76	 174.8	 0	 0	 1	-30	 30;
	 27	 34	 0.01488	 0.02661	 0.00302	 50.93	 61.12	 61.12	 0	 0	 1	-30	 30;
	 28	 29	 8e-05	 0.00083	 0	 438	 438	 438	 0	 0	 1	-30	 30;
	 28	 34	 0.00215	 0.00603	 0.00063	 39	 39	 39	 0	 0	 1	-30	 30;
	 32	 33	 0.00231	 0.00694	 0.00072	 63	 63	 63	 0	 0	 1	-30	 30;
	 34	 35	 8e-05	 0.00083	 0	 438	 438	 438	 0	 0	 1	-30	 30;
	 36	 37	 0.00603	 0.01744	 0.0023	 105	 105	 105	 0	 0	 1	-30	 30;
	 38	 39	 8e-05	 0.00083	 0	 615.32	 709.99	 710	 0	 0	 1	-30	 30;
	 40	 41	 8e-05	 0.00083	 0	 438	 438	 438	 0	 0	 1	-30	 30;
	 42	 43	 0.00372	 0.01231	 0.00124	 62	 62	 62	 0	 0	 1	-30	 30;
	 42	 179	 0.0001	 0.01	 0	 83.7	 98.6	 98.6	 0	 0	 1	-30	 30;
	 44	 45	 8e-05	 0.00083	 0	 438	 438	 438	 0	 0	 1	-30	 30;
	 44	 46	 0.00149	 0.00446	 0.00057	 62	 62	 62	 0	 0	 1	-30	 30;
	 46	 47	 8e-05	 0.00083	 0	 438	 438	 438	 0	 0	 1	-30	 30;
	 48	 49	 8e-05	 0.00083	 0	 438	 438	 438	 0	 0	 1	-30	 30;
	 50	 51	 8e-05	 0.00083	 0	 438	 438	 438	 0	 0	 1	-30	 30;
	 53	 62	 0.0012	 0.0089	 0.01512	 461	 461	 461	 0	 0	 1	-30	 30;
	 54	 63	 0.0012	 0.0089	 0.01513	 461	 461	 461	 0	 0	 1	-30	 30;
	 55	 56	 2e-05	 0.00021	 0	 876	 876	 876	 0	 0	 1	-30	 30;
	 55	 57	 0.00287	 0.01671	 0.02467	 295	 295	 295	 0	 0	 1	-30	 30;
	 55	 60	 0.00457	 0.03351	 0.05245	 317	 317	 317	 0	 0	 1	-30	 30;
	 56	 62	 0.00924	 0.05052	 0.07698	 367.86	 478.22	 478.22	 0	 0	 1	-30	 30;
	 56	 67	 0.00494	 0.0269	 0.04225	 250	 250	 250	 0	 0	 1	-30	 30;
	 57	 58	 2e-05	 0.00021	 0	 876	 876	 876	 0	 0	 1	-30	 30;
	 57	 63	 0.00585	 0.04027	 0.07161	 463.05	 601.97	 602	 0	 0	 1	-30	 30;
	 57	 113	 0.0001	 0.01	 0	 502.52	 579.83	 579.83	 0	 0	 1	-30	 30;
	 58	 62	 0.00585	 0.04027	 0.07161	 400	 400	 400	 0	 0	 1	-30	 30;
	 58	 77	 0.01068	 0.0475	 0.09495	 521.26	 601.45	 601.5	 0	 0	 1	-30	 30;
	 59	 60	 2e-05	 0.00021	 0	 876	 876	 876	 0	 0	 1	-30	 30;
	 59	 63	 0.00399	 0.02901	 0.04808	 380	 380	 380	 0	 0	 1	-30	 30;
	 61	 64	 0.00358	 0.04122	 1.1338	 1154	 1154	 1154	 0	 0	 1	-30	 30;
	 61	 218	 0.0001	 0.01	 0	 437.95	 525.54	 525.54	 0	 0	 1	-30	 30;
	 62	 71	 0.00919	 0.06614	 0.10451	 375	 375	 375	 0	 0	 1	-30	 30;
	 63	 72	 0.00822	 0.05767	 0.0982	 400	 400	 400	 0	 0	 1	-30	 30;
	 64	 65	 1e-05	 0.0002	 0	 1593	 1593	 1593	 0	 0	 1	-30	 30;
	 64	 66	 0.00097	 0.01052	 0.28395	 970	 970	 970	 0	 0	 1	-30	 30;
	 64	 76	 0.00234	 0.02677	 0.74653	 1154	 1154	 1154	 0	 0	 1	-30	 30;
	 65	 74	 0.00137	 0.01569	 0.43744	 1154	 1154	 1154	 0	 0	 1	-30	 30;
	 66	 73	 0.00097	 0.01052	 0.28395	 970	 970	 970	 0	 0	 1	-30	 30;
	 66	 106	 0.0001	 0.01	 0	 366.53	 439.84	 439.84	 0	 0	 1	-30	 30;
	 67	 68	 2e-05	 0.00021	 0	 876	 876	 876	 0	 0	 1	-30	 30;
	 69	 70	 2e-05	 0.00021	 0	 876	 876	 876	 0	 0	 1	-30	 30;
	 69	 71	 0.00136	 0.0099	 0.01586	 400	 400	 400	 0	 0	 1	-30	 30;
	 71	 72	 2e-05	 0.00021	 0	 876	 876	 876	 0	 0	 1	-30	 30;
	 71	 75	 0.0039	 0.02847	 0.04498	 317	 317	 317	 0	 0	 1	-30	 30;
	 73	 74	 1e-05	 0.0002	 0	 1593	 1593	 1593	 0	 0	 1	-30	 30;
	 76	 222	 0.0001	 0.01	 0	 426.75	 512.1	 512.1	 0	 0	 1	-30	 30;
	 78	 81	 0.00686	 0.02215	 0.00229	 90	 90	 90	 0	 0	 1	-30	 30;
	 78	 103	 0.02058	 0.06694	 0.00691	 90	 90	 90	 0	 0	 1	-30	 30;
	 79	 89	 0.01446	 0.04802	 0.00469	 90	 90	 90	 0	 0	 1	-30	 30;
	 80	 81	 8e-05	 0.00083	 0	 438	 438	 438	 0	 0	 1	-30	 30;
	 80	 94	 0.01372	 0.04446	 0.00461	 90	 90	 90	 0	 0	 1	-30	 30;
	 82	 83	 8e-05	 0.00083	 0	 438	 438	 438	 0	 0	 1	-30	 30;
	 82	 84	 0.00788	 0.05315	 0.00589	 250.89	 301.06	 301.1	 0	 0	 1	-30	 30;
	 83	 92	 0.0044	 0.03039	 0.00342	 208	 208	 208	 0	 0	 1	-30	 30;
	 84	 85	 8e-05	 0.00083	 0	 438	 438	 438	 0	 0	 1	-30	 30;
	 84	 101	 0.00098	 0.00423	 0.02594	 95	 95	 95	 0	 0	 1	-30	 30;
	 87	 91	 0.00256	 0.02273	 0.00199	 208	 208	 208	 0	 0	 1	-30	 30;
	 87	 94	 0.00174	 0.01207	 0.00134	 274.5	 329.4	 329.4	 0	 0	 1	-30	 30;
	 88	 101	 0.00017	 0.00074	 0.00757	 95	 95	 95	 0	 0	 1	-30	 30;
	 90	 94	 1e-05	 0.0002	 0.00075	 95	 95	 95	 0	 0	 1	-30	 30;
	 91	 92	 8e-05	 0.00083	 0	 438	 438	 438	 0	 0	 1	-30	 30;
	 94	 98	 0.03529	 0.13702	 0.01374	 90	 90	 90	 0	 0	 1	-30	 30;
	 95	 97	 0.00488	 0.01587	 0.00164	 90	 90	 90	 0	 0	 1	-30	 30;
	 95	 100	 0.01289	 0.04289	 0.0042	 133.33	 153.85	 153.85	 0	 0	 1	-30	 30;
	 97	 98	 8e-05	 0.00083	 0	 438	 438	 438	 0	 0	 1	-30	 30;
	 99	 100	 0.01628	 0.05397	 0.00529	 129.61	 149.56	 149.6	 0	 0	 1	-30	 30;
	 102	 103	 8e-05	 0.00083	 0	 438	 438	 438	 0	 0	 1	-30	 30;
	 105	 106	 1e-05	 0.0002	 0	 1593	 1593	 1593	 0	 0	 1	-30	 30;
	 105	 118	 0.00131	 0.01547	 0.41152	 838	 838	 838	 0	 0	 1	-30	 30;
	 107	 108	 1e-05	 0.0002	 0	 1593	 1593	 1593	 0	 0	 1	-30	 30;
	 107	 110	 0.00224	 0.02606	 0.70304	 831	 831	 831	 0	 0	 1	-30	 30;
	 107	 169	 0.00033	 0.00388	 0.10475	 831	 831	 831	 0	 0	 1	-30	 30;
	 108	 114	 0.0024	 0.02795	 0.75408	 838	 838	 838	 0	 0	 1	-30	 30;
	 108	 120	 0.00133	 0.01553	 0.41898	 831	 831	 831	 0	 0	 1	-30	 30;
	 110	 111	 1e-05	 0.0002	 0	 1593	 1593	 1593	 0	 0	 1	-30	 30;
	 110	 271	 0.0001	 0.01	 0	 340.72	 408.86	 408.9	 0	 0	 1	-30	 30;
	 112	 263	 0.0001	 0.01	 0	 223.99	 268.78	 268.8	 0	 0	 1	-30	 30;
	 114	 115	 1e-05	 0.0002	 0	 1593	 1593	 1593	 0	 0	 1	-30	 30;
	 116	 262	 0.0001	 0.01	 0	 300.9	 347.19	 347.2	 0	 0	 1	-30	 30;
	 117	 118	 1e-05	 0.0002	 0	 1593	 1593	 1593	 0	 0	 1	-30	 30;
	 117	 119	 0.0015	 0.01768	 0.46944	 831	 831	 831	 0	 0	 1	-30	 30;
	 119	 120	 1e-05	 0.0002	 0	 1593	 1593	 1593	 0	 0	 1	-30	 30;
	 119	 169	 0.001	 0.01165	 0.31426	 831	 831	 831	 0	 0	 1	-30	 30;
	 121	 140	 0.021	 0.0679	 0.00696	 231.44	 267.04	 267.04	 0	 0	 1	-30	 30;
	 121	 167	 0.02139	 0.06954	 0.00729	 219.24	 252.97	 253	 0	 0	 1	-30	 30;
	 122	 123	 8e-05	 0.00083	 0	 438	 438	 438	 0	 0	 1	-30	 30;
	 122	 129	 0.03025	 0.09752	 0.01002	 86	 86	 86	 0	 0	 1	-30	 30;
	 122	 132	 0.00983	 0.01736	 0.0016	 137	 137	 137	 0	 0	 1	-30	 30;
	 122	 167	 0.03669	 0.11818	 0.01217	 123	 123	 123	 0	 0	 1	-30	 30;
	 123	 142	 0.00711	 0.02314	 0.00234	 124	 124	 124	 0	 0	 1	-30	 30;
	 123	 148	 0.00331	 0.01074	 0.00109	 137	 137	 137	 0	 0	 1	-30	 30;
	 124	 140	 0.0405	 0.07107	 0.00673	 214.01	 246.93	 246.93	 0	 0	 1	-30	 30;
	 124	 153	 0.04628	 0.07107	 0.0076	 201.48	 232.47	 232.5	 0	 0	 1	-30	 30;
	 125	 166	 0.0214	 0.06887	 0.00708	 69	 69	 69	 0	 0	 1	-30	 30;
	 125	 178	 0.0001	 0.01	 0	 83.7	 98.6	 98.6	 0	 0	 1	-30	 30;
	 127	 130	 0.0076	 0.01983	 0.00206	 120	 120	 120	 0	 0	 1	-30	 30;
	 127	 145	 0.01281	 0.02149	 0.00212	 78	 78	 78	 0	 0	 1	-30	 30;
	 127	 146	 0.00124	 0.00413	 0.00041	 137	 137	 137	 0	 0	 1	-30	 30;
	 129	 149	 0.00124	 0.00413	 0.00039	 128	 128	 128	 0	 0	 1	-30	 30;
	 129	 165	 0.01977	 0.06457	 0.00658	 123	 123	 123	 0	 0	 1	-30	 30;
	 129	 300	 0.0001	 0.01	 0	 83.7	 98.6	 98.6	 0	 0	 1	-30	 30;
	 131	 132	 8e-05	 0.00083	 0	 438	 438	 438	 0	 0	 1	-30	 30;
	 131	 136	 0.00124	 0.00413	 0.00039	 128	 128	 128	 0	 0	 1	-30	 30;
	 131	 160	 0.00099	 0.00347	 0.00036	 137	 137	 137	 0	 0	 1	-30	 30;
	 131	 165	 0.01083	 0.03471	 0.00358	 137	 137	 137	 0	 0	 1	-30	 30;
	 132	 135	 0.00496	 0.01273	 0.00128	 143.97	 166.12	 166.12	 0	 0	 1	-30	 30;
	 132	 159	 0.00124	 0.00413	 0.00039	 128	 128	 128	 0	 0	 1	-30	 30;
	 133	 134	 0.00142	 0.00465	 0.00047	 123	 123	 123	 0	 0	 1	-30	 30;
	 133	 162	 0.00408	 0.01332	 0.00136	 123	 123	 123	 0	 0	 1	-30	 30;
	 134	 168	 0.01705	 0.05552	 0.00567	 137	 137	 137	 0	 0	 1	-30	 30;
	 136	 159	 0.00124	 0.00413	 0.00039	 128	 128	 128	 0	 0	 1	-30	 30;
	 138	 142	 0.00289	 0.00926	 0.00094	 137	 137	 137	 0	 0	 1	-30	 30;
	 138	 160	 0.00207	 0.00694	 0.0007	 137	 137	 137	 0	 0	 1	-30	 30;
	 139	 151	 0.03347	 0.06529	 0.00593	 123	 123	 123	 0	 0	 1	-30	 30;
	 139	 234	 0.0001	 0.01	 0	 83.7	 98.6	 98.6	 0	 0	 1	-30	 30;
	 140	 141	 0.00413	 0.01372	 0.00138	 183.3	 211.5	 211.5	 0	 0	 1	-30	 30;
	 141	 164	 0.03438	 0.06099	 0.00569	 190.73	 220.08	 220.1	 0	 0	 1	-30	 30;
	 143	 164	 0.0395	 0.1281	 0.01314	 278.22	 321.03	 321.03	 0	 0	 1	-30	 30;
	 143	 168	 0.00165	 0.00496	 0.00053	 261.73	 302	 302	 0	 0	 1	-30	 30;
	 144	 166	 0.00026	 0.00066	 7e-05	 69	 69	 69	 0	 0	 1	-30	 30;
	 147	 148	 0.00645	 0.02066	 0.00213	 137	 137	 137	 0	 0	 1	-30	 30;
	 147	 162	 0.04174	 0.07322	 0.00692	 90	 90	 90	 0	 0	 1	-30	 30;
	 147	 163	 0.01132	 0.03636	 0.00375	 137	 137	 137	 0	 0	 1	-30	 30;
	 150	 155	 0.00862	 0.02752	 0.00296	 101	 101	 101	 0	 0	 1	-30	 30;
	 150	 158	 0.00891	 0.01566	 0.00148	 88.46	 102.06	 102.1	 0	 0	 1	-30	 30;
	 151	 152	 0.03347	 0.06529	 0.00593	 101.93	 122.32	 122.32	 0	 0	 1	-30	 30;
	 152	 154	 0.04351	 0.09356	 0.00962	 111.13	 133.36	 133.4	 0	 0	 1	-30	 30;
	 153	 156	 0.01653	 0.03306	 0.00242	 190.94	 220.32	 220.32	 0	 0	 1	-30	 30;
	 154	 155	 8e-05	 0.00083	 0	 438	 438	 438	 0	 0	 1	-30	 30;
	 154	 161	 0.02394	 0.04718	 0.00469	 78.97	 91.12	 91.12	 0	 0	 1	-30	 30;
	 155	 157	 0.0328	 0.07474	 0.00784	 73.97	 96.16	 96.2	 0	 0	 1	-30	 30;
	 156	 157	 8e-05	 0.00083	 0	 438	 438	 438	 0	 0	 1	-30	 30;
	 156	 158	 0.00496	 0.00826	 0.00085	 97.72	 112.75	 112.8	 0	 0	 1	-30	 30;
	 161	 166	 0.01686	 0.05427	 0.00558	 69	 69	 69	 0	 0	 1	-30	 30;
	 163	 167	 0.01721	 0.05623	 0.00573	 140	 140	 140	 0	 0	 1	-30	 30;
	 167	 168	 8e-05	 0.00083	 0	 438	 438	 438	 0	 0	 1	-30	 30;
...